@<TRIPOS>MOLECULE
LNK
51 49 0 0 0
SMALL
GAFF2
linker-C18-noN


@<TRIPOS>ATOM
    1 C          106.9380  120.4800  170.8830    c   1 LNK  0.015496
    2 O          107.4240  121.5850  170.6680    o   1 LNK -0.030302
    3 C13        107.5700  119.4520  171.8090   c3   1 LNK  0.015496
    4 C14        108.4910  120.0700  172.8660   c3   1 LNK  0.015496
    5 C15        107.7470  120.6730  174.0710   c3   1 LNK  0.015496
    6 N16        106.7210  121.6480  173.6640    n   1 LNK -0.056136
    7 C17        108.7590  121.3360  175.0340    c   1 LNK  0.015496
    8 O18        108.9230  122.5550  175.0930    o   1 LNK -0.030302
    9 N19        109.4570  120.4470  175.8190    n   1 LNK -0.056136
   10 C20        110.4440  120.8850  176.7890   c3   1 LNK  0.015496
   11 C21        109.8470  121.6490  177.9790   c3   1 LNK  0.015496
   12 O22        110.6660  121.5560  179.1500   os   1 LNK -0.030302
   13 C23        111.8870  122.2900  179.0460   c3   1 LNK  0.015496
   14 C24        112.7580  121.9890  180.2680   c3   1 LNK  0.015496
   15 O25        114.0220  122.6490  180.2710   os   1 LNK -0.030302
   16 C26        114.8760  122.3630  179.1760   c3   1 LNK  0.015496
   17 C27        115.1380  120.9010  178.7470    c   1 LNK  0.015496
   18 O28        114.2260  120.1420  178.4220    o   1 LNK -0.030302
   19 N29        116.4710  120.5410  178.7150    n   1 LNK -0.056136
   20 C30        116.8990  119.1920  178.3740   c3   1 LNK  0.015496
   21 C31        117.4980  118.4600  179.5790   c3   1 LNK  0.015496
   22 O32        116.4770  118.1930  180.5450   os   1 LNK -0.030302
   23 C33        117.0090  117.7960  181.8060   c3   1 LNK  0.015496
   24 C34        117.3280  119.0210  182.6700   c3   1 LNK  0.015496
   25 O35        118.2690  118.7230  183.7010   os   1 LNK -0.030302
   26 C36        119.6170  118.7350  183.2490   c3   1 LNK  0.015496
   27 C37        120.1600  120.1380  183.0070    c   1 LNK  0.015496
   28 O38        120.3950  120.5350  181.8630    o   1 LNK -0.030302
   29 C39        120.3510  121.0210  184.2260   c3   1 LNK  0.015496
   30 C40        121.7640  121.5970  184.3020   c3   1 LNK  0.015496
   31 C41        122.8710  120.5520  184.5020   c3   1 LNK  0.015496
   32 C42        122.7640  119.7020  185.7740   c3   1 LNK  0.015496
   33 C43        122.6730  120.4760  187.0940   c3   1 LNK  0.015496
   34 C44        123.9190  121.3120  187.3970   c3   1 LNK  0.015496
   35 C45        123.7780  122.1760  188.6550   c3   1 LNK  0.015496
   36 C46        123.4950  121.4240  189.9590   c3   1 LNK  0.015496
   37 C47        124.5300  120.3660  190.3500   c3   1 LNK  0.015496
   38 C48        125.9600  120.8810  190.5510   c3   1 LNK  0.015496
   39 C49        126.0940  121.8530  191.7270   c3   1 LNK  0.015496
   40 C50        127.5530  122.2630  191.9400   c3   1 LNK  0.015496
   41 C51        127.7130  123.1670  193.1660   c3   1 LNK  0.015496
   42 C52        129.1790  123.5680  193.3630   c3   1 LNK  0.015496
   43 C53        129.4010  124.5230  194.5430   c3   1 LNK  0.015496
   44 C54        129.0170  123.9590  195.9080   c3   1 LNK  0.015496
   45 C55        129.7950  122.7010  196.3100    c   1 LNK  0.015496
   46 O56        131.0380  122.7360  196.1020    o   1 LNK -0.030302
   47 O57        129.0860  121.7890  196.8230    o   1 LNK -0.030302
   48 C58        103.9470  123.0390  164.8750    c   1 LNK  0.015496
   49 O59        104.7980  123.9260  164.8100    o   1 LNK -0.030302
   50 N60        102.7820  123.0490  164.1310    n   1 LNK -0.056136
   51 C61        102.5780  124.0490  163.1100   c3   1 LNK  0.015496
@<TRIPOS>BOND
   1    1    2 1
   2    1    3 1
   3    3    4 1
   4    4    5 1
   5    5    6 1
  6    5    7 1
  7    7    8 1
  8    7    9 1
  9    9   10 1
  10   10   11 1
  11   11   12 1
  12   12   13 1
  13   13   14 1
  14   14   15 1
  15   15   16 1
  16   16   17 1
  17   17   18 1
  18   17   19 1
  19   19   20 1
  20   20   21 1
  21   21   22 1
  22   22   23 1
  23   23   24 1
  24   24   25 1
  25   25   26 1
  26   26   27 1
  27   27   28 1
  28   27   29 1
  29   29   30 1
  30   30   31 1
  31   31   32 1
  32   32   33 1
  33   33   34 1
  34   34   35 1
  35   35   36 1
  36   36   37 1
  37   37   38 1
  38   38   39 1
  39   39   40 1
  40   40   41 1
  41   41   42 1
  42   42   43 1
 43   43   44 1
 44   44   45 1
 45   45   46 1
 46   45   47 1
 47   48   49 1
 48   48   50 1
 49   50   51 1
@<TRIPOS>SUBSTRUCTURE
     1 LNK         1 TEMP              0 ****  ****    0 ROOT
