@<TRIPOS>MOLECULE
LNK
  130   114     0     0     0
SMALL
GAFF2
linker-C18-noN

@<TRIPOS>ATOM
   1 C        106.9380   120.4800   170.8830    c   1 LNK  -0.033535
   2 O        107.4240   121.5850   170.6680    o   1 LNK  -0.079333
   3 C13      107.5700   119.4520   171.8090   c3   1 LNK  -0.033535
   4 C14      108.4910   120.0700   172.8660   c3   1 LNK  -0.033535
   5 C15      107.7470   120.6730   174.0710   c3   1 LNK  -0.033535
   6 N16      106.7210   121.6480   173.6640    n   1 LNK  -0.105167
   7 C17      108.7590   121.3360   175.0340    c   1 LNK  -0.033535
   8 O18      108.9230   122.5550   175.0930    o   1 LNK  -0.079333
   9 N19      109.4570   120.4470   175.8190    n   1 LNK  -0.105167
  10 C20      110.4440   120.8850   176.7890   c3   1 LNK  -0.033535
  11 C21      109.8470   121.6490   177.9790   c3   1 LNK  -0.033535
  12 O22      110.6660   121.5560   179.1500   os   1 LNK  -0.079333
  13 C23      111.8870   122.2900   179.0460   c3   1 LNK  -0.033535
  14 C24      112.7580   121.9890   180.2680   c3   1 LNK  -0.033535
  15 O25      114.0220   122.6490   180.2710   os   1 LNK  -0.079333
  16 C26      114.8760   122.3630   179.1760   c3   1 LNK  -0.033535
  17 C27      115.1380   120.9010   178.7470    c   1 LNK  -0.033535
  18 O28      114.2260   120.1420   178.4220    o   1 LNK  -0.079333
  19 N29      116.4710   120.5410   178.7150    n   1 LNK  -0.105167
  20 C30      116.8990   119.1920   178.3740   c3   1 LNK  -0.033535
  21 C31      117.4980   118.4600   179.5790   c3   1 LNK  -0.033535
  22 O32      116.4770   118.1930   180.5450   os   1 LNK  -0.079333
  23 C33      117.0090   117.7960   181.8060   c3   1 LNK  -0.033535
  24 C34      117.3280   119.0210   182.6700   c3   1 LNK  -0.033535
  25 O35      118.2690   118.7230   183.7010   os   1 LNK  -0.079333
  26 C36      119.6170   118.7350   183.2490   c3   1 LNK  -0.033535
  27 C37      120.1600   120.1380   183.0070    c   1 LNK  -0.033535
  28 O38      120.3950   120.5350   181.8630    o   1 LNK  -0.079333
  29 C39      120.3510   121.0210   184.2260   c3   1 LNK  -0.033535
  30 C40      121.7640   121.5970   184.3020   c3   1 LNK  -0.033535
  31 C41      122.8710   120.5520   184.5020   c3   1 LNK  -0.033535
  32 C42      122.7640   119.7020   185.7740   c3   1 LNK  -0.033535
  33 C43      122.6730   120.4760   187.0940   c3   1 LNK  -0.033535
  34 C44      123.9190   121.3120   187.3970   c3   1 LNK  -0.033535
  35 C45      123.7780   122.1760   188.6550   c3   1 LNK  -0.033535
  36 C46      123.4950   121.4240   189.9590   c3   1 LNK  -0.033535
  37 C47      124.5300   120.3660   190.3500   c3   1 LNK  -0.033535
  38 C48      125.9600   120.8810   190.5510   c3   1 LNK  -0.033535
  39 C49      126.0940   121.8530   191.7270   c3   1 LNK  -0.033535
  40 C50      127.5530   122.2630   191.9400   c3   1 LNK  -0.033535
  41 C51      127.7130   123.1670   193.1660   c3   1 LNK  -0.033535
  42 C52      129.1790   123.5680   193.3630   c3   1 LNK  -0.033535
  43 C53      129.4010   124.5230   194.5430   c3   1 LNK  -0.033535
  44 C54      129.0170   123.9590   195.9080   c3   1 LNK  -0.033535
  45 C55      129.7950   122.7010   196.3100    c   1 LNK  -0.033535
  46 O56      131.0380   122.7360   196.1020    o   1 LNK  -0.079333
  47 O57      129.0860   121.7890   196.8230    o   1 LNK  -0.079333
  48 C58      103.9470   123.0390   164.8750    c   1 LNK  -0.033535
  49 O59      104.7980   123.9260   164.8100    o   1 LNK  -0.079333
  50 N60      102.7820   123.0490   164.1310    n   1 LNK  -0.105167
  51 C61      102.5780   124.0490   163.1100   c3   1 LNK  -0.033535
  52 H62      108.1940   120.4230   164.7360   hc   1 LNK   0.071633
  53 H63      108.0080   121.8190   165.8080   hc   1 LNK   0.071633
  54 H64      107.9330   120.1700   166.4830   hc   1 LNK   0.071633
  55 H65      105.9830   122.4770   166.4330   hc   1 LNK   0.071633
  56 H66      103.6300   120.9700   165.3940   hc   1 LNK   0.071633
  57 H67      102.3660   122.7280   166.8950   hc   1 LNK   0.071633
  58 H68      103.8720   122.9000   167.7720   hc   1 LNK   0.071633
  59 H69      102.2470   121.3120   168.8010   hc   1 LNK   0.071633
  60 H70      102.2650   120.3220   167.3540   hc   1 LNK   0.071633
  61 H71      104.6090   119.6600   167.7730   hc   1 LNK   0.071633
  62 H72      103.5610   119.2960   169.1210   hc   1 LNK   0.071633
  63 H73      105.5600   121.6190   168.9590   hc   1 LNK   0.071633
  64 H74      104.3520   121.4660   170.2450   hc   1 LNK   0.071633
  65 H75      105.3910   119.1590   170.6280   hc   1 LNK   0.071633
  66 H76      106.7940   118.8470   172.2900   hc   1 LNK   0.071633
  67 H77      108.1590   118.7820   171.1730   hc   1 LNK   0.071633
  68 H78      109.1460   120.8220   172.4100   hc   1 LNK   0.071633
  69 H79      109.1560   119.2800   173.2360   hc   1 LNK   0.071633
  70 H80      107.2320   119.8770   174.6180   hc   1 LNK   0.071633
  71 H81      106.5090   122.2490   174.4660   hn   1 LNK   0.071633
  72 H82      107.1460   122.2920   172.9850   hn   1 LNK   0.071633
  73 H83      109.1950   119.4710   175.8170   hn   1 LNK   0.071633
  74 H84      111.1740   121.5150   176.2700   hc   1 LNK   0.071633
  75 H85      110.9700   119.9890   177.1360   hc   1 LNK   0.071633
  76 H86      109.6600   122.7020   177.7340   hc   1 LNK   0.071633
  77 H87      108.8770   121.2080   178.2500   hc   1 LNK   0.071633
  78 H88      112.4100   122.0160   178.1250   hc   1 LNK   0.071633
  79 H89      111.6670   123.3620   178.9920   hc   1 LNK   0.071633
  80 H90      112.2190   122.3310   181.1640   hc   1 LNK   0.071633
  81 H91      112.8940   120.9080   180.4150   hc   1 LNK   0.071633
  82 H92      114.5050   122.8940   178.2920   hc   1 LNK   0.071633
  83 H93      115.8360   122.8340   179.4150   hc   1 LNK   0.071633
  84 H94      117.1610   121.1770   179.0950   hn   1 LNK   0.071633
  85 H95      117.6590   119.2980   177.5930   hc   1 LNK   0.071633
  86 H96      116.0580   118.6230   177.9660   hc   1 LNK   0.071633
  87 H97      117.9200   117.5050   179.2520   hc   1 LNK   0.071633
  88 H98      118.2970   119.0620   180.0200   hc   1 LNK   0.071633
  89 H99      116.2420   117.2010   182.3140   hc   1 LNK   0.071633
  90 H100     117.8690   117.1300   181.6660   hc   1 LNK   0.071633
  91 H101     117.6670   119.8720   182.0730   hc   1 LNK   0.071633
  92 H102     116.4060   119.3510   183.1580   hc   1 LNK   0.071633
  93 H103     119.7340   118.1450   182.3340   hc   1 LNK   0.071633
  94 H104     120.2420   118.2520   184.0070   hc   1 LNK   0.071633
  95 H105     120.1050   120.4590   185.1310   hc   1 LNK   0.071633
  96 H106     119.6160   121.8310   184.1530   hc   1 LNK   0.071633
  97 H107     121.9790   122.1500   183.3760   hc   1 LNK   0.071633
  98 H108     121.8000   122.3350   185.1110   hc   1 LNK   0.071633
  99 H109     123.8390   121.0710   184.4930   hc   1 LNK   0.071633
 100 H110     122.8880   119.8760   183.6380   hc   1 LNK   0.071633
 101 H111     121.8860   119.0500   185.6980   hc   1 LNK   0.071633
 102 H112     123.6310   119.0290   185.8150   hc   1 LNK   0.071633
 103 H113     122.5260   119.7420   187.8950   hc   1 LNK   0.071633
 104 H114     121.7800   121.1120   187.0920   hc   1 LNK   0.071633
 105 H115     124.7920   120.6540   187.4890   hc   1 LNK   0.071633
 106 H116     124.1240   121.9870   186.5590   hc   1 LNK   0.071633
 107 H117     124.6900   122.7720   188.7720   hc   1 LNK   0.071633
 108 H118     122.9680   122.9020   188.4950   hc   1 LNK   0.071633
 109 H119     122.5140   120.9390   189.8920   hc   1 LNK   0.071633
 110 H120     123.4010   122.1560   190.7690   hc   1 LNK   0.071633
 111 H121     124.5500   119.5780   189.5900   hc   1 LNK   0.071633
 112 H122     124.1990   119.8810   191.2770   hc   1 LNK   0.071633
 113 H123     126.3280   121.3510   189.6320   hc   1 LNK   0.071633
 114 H124     126.6080   120.0150   190.7360   hc   1 LNK   0.071633
 115 H125     125.7070   121.3780   192.6370   hc   1 LNK   0.071633
 116 H126     125.4920   122.7530   191.5500   hc   1 LNK   0.071633
 117 H127     128.1720   121.3650   192.0660   hc   1 LNK   0.071633
 118 H128     127.9200   122.7810   191.0460   hc   1 LNK   0.071633
 119 H129     127.3460   122.6330   194.0510   hc   1 LNK   0.071633
 120 H130     127.0980   124.0670   193.0460   hc   1 LNK   0.071633
 121 H131     129.5360   124.0650   192.4500   hc   1 LNK   0.071633
 122 H132     129.7960   122.6680   193.4900   hc   1 LNK   0.071633
 123 H133     130.4580   124.8160   194.5490   hc   1 LNK   0.071633
 124 H134     128.8270   125.4430   194.3710   hc   1 LNK   0.071633
 125 H135     127.9390   123.7620   195.9500   hc   1 LNK   0.071633
 126 H136     129.2220   124.7180   196.6720   hc   1 LNK   0.071633
 127 H137     102.2780   122.1760   164.0350   hn   1 LNK   0.071633
 128 H138     101.5120   124.0710   162.8610   hc   1 LNK   0.071633
 129 H139     103.1610   123.7730   162.2280   hc   1 LNK   0.071633
 130 H140     102.9000   125.0310   163.4650   hc   1 LNK   0.071633

@<TRIPOS>BOND
   1    1    2 1
   2    1    3 1
   3    3    4 1
   4    3   66 1
   5    3   67 1
   6    4    5 1
   7    4   68 1
   8    4   69 1
   9    5    6 1
  10    5    7 1
  11    5   70 1
  12    6   71 1
  13    6   72 1
  14    7    8 1
  15    7    9 1
  16    9   10 1
  17    9   73 1
  18   10   11 1
  19   10   74 1
  20   10   75 1
  21   11   12 1
  22   11   76 1
  23   11   77 1
  24   12   13 1
  25   13   14 1
  26   13   78 1
  27   13   79 1
  28   14   15 1
  29   14   80 1
  30   14   81 1
  31   15   16 1
  32   16   17 1
  33   16   82 1
  34   16   83 1
  35   17   18 1
  36   17   19 1
  37   19   20 1
  38   19   84 1
  39   20   21 1
  40   20   85 1
  41   20   86 1
  42   21   22 1
  43   21   87 1
  44   21   88 1
  45   22   23 1
  46   23   24 1
  47   23   89 1
  48   23   90 1
  49   24   25 1
  50   24   91 1
  51   24   92 1
  52   25   26 1
  53   26   27 1
  54   26   93 1
  55   26   94 1
  56   27   28 1
  57   27   29 1
  58   29   30 1
  59   29   95 1
  60   29   96 1
  61   30   31 1
  62   30   97 1
  63   30   98 1
  64   31   32 1
  65   31   99 1
  66   31  100 1
  67   32   33 1
  68   32  101 1
  69   32  102 1
  70   33   34 1
  71   33  103 1
  72   33  104 1
  73   34   35 1
  74   34  105 1
  75   34  106 1
  76   35   36 1
  77   35  107 1
  78   35  108 1
  79   36   37 1
  80   36  109 1
  81   36  110 1
  82   37   38 1
  83   37  111 1
  84   37  112 1
  85   38   39 1
  86   38  113 1
  87   38  114 1
  88   39   40 1
  89   39  115 1
  90   39  116 1
  91   40   41 1
  92   40  117 1
  93   40  118 1
  94   41   42 1
  95   41  119 1
  96   41  120 1
  97   42   43 1
  98   42  121 1
  99   42  122 1
 100   43   44 1
 101   43  123 1
 102   43  124 1
 103   44   45 1
 104   44  125 1
 105   44  126 1
 106   45   46 1
 107   45   47 1
 108   48   49 1
 109   48   50 1
 110   50   51 1
 111   50  127 1
 112   51  128 1
 113   51  129 1
 114   51  130 1

@<TRIPOS>SUBSTRUCTURE
     1 LNK         1 TEMP              0 ****  ****    0 ROOT
