@<TRIPOS>MOLECULE
FAH
 36 35 1 0 0
SMALL
GAFF2
c12_diacid at FA3 (all-atom)

@<TRIPOS>ATOM
     1 C1D       13.8850     9.4810    10.0940 c    1 FAH     0.7778
     2 O1D       13.4207     8.3207    10.2544 o    1 FAH    -0.8889
     3 O2D       14.1708     9.9766     8.9714 o    1 FAH    -0.8889
     4 C01       14.1160    10.3410    11.3390 c3   1 FAH    -0.1333
     5 C02       12.9080    11.2570    11.5800 c3   1 FAH    -0.1333
     6 C03       12.4260    10.9040    12.9800 c3   1 FAH    -0.1333
     7 C04       10.9280    11.0770    13.1260 c3   1 FAH    -0.1333
     8 C05       10.4880    10.8000    14.5530 c3   1 FAH    -0.1333
     9 C06        9.6760    11.9570    15.1230 c3   1 FAH    -0.1333
    10 C07       10.4130    12.6530    16.2680 c3   1 FAH    -0.1333
    11 C08        9.6020    12.6120    17.5740 c3   1 FAH    -0.1333
    12 C09       10.1460    13.5780    18.6310 c3   1 FAH    -0.1343
    13 C10       10.5780    12.8370    19.8840 c3   1 FAH    -0.1333
    14 C1P       11.1210    13.7805    20.9448 c    1 FAH     0.7778
    15 O1P       12.3556    14.0322    20.9365 o    1 FAH    -0.8889
    16 O2P       10.3091    14.2632    21.7787 o    1 FAH    -0.8889
    17 H1A       15.0732    10.8624    11.3439 hc   1 FAH     0.0667
    18 H1B       14.4212     9.7726    12.2176 hc   1 FAH     0.0667
    19 H2A       12.1445    11.2429    10.8022 hc   1 FAH     0.0667
    20 H2B       13.0775    12.3176    11.3944 hc   1 FAH     0.0667
    21 H3A       12.9954    11.3962    13.7685 hc   1 FAH     0.0667
    22 H3B       12.7835     9.9345    13.3270 hc   1 FAH     0.0667
    23 H4A       10.3502    10.5352    12.3772 hc   1 FAH     0.0667
    24 H4B       10.5562    12.0217    12.7293 hc   1 FAH     0.0667
    25 H5A       11.3021    10.4799    15.2033 hc   1 FAH     0.0667
    26 H5B       10.0070     9.8299    14.6778 hc   1 FAH     0.0667
    27 H6A        8.6498    11.6853    15.3704 hc   1 FAH     0.0667
    28 H6B        9.3101    12.6458    14.3615 hc   1 FAH     0.0667
    29 H7A       10.7686    13.6507    16.0106 hc   1 FAH     0.0667
    30 H7B       11.4429    12.3167    16.3874 hc   1 FAH     0.0667
    31 H8A        9.4522    11.6013    17.9538 hc   1 FAH     0.0667
    32 H8B        8.5283    12.7113    17.4149 hc   1 FAH     0.0667
    33 H9A        9.4853    14.4217    18.8305 hc   1 FAH     0.0667
    34 H9B       10.9031    14.2617    18.2470 hc   1 FAH     0.0667
    35 H10A      11.2368    11.9929    19.6800 hc   1 FAH     0.0667
    36 H10B       9.8190    12.1529    20.2634 hc   1 FAH     0.0667
@<TRIPOS>BOND
     1      1      2 2
     2      1      3 1
     3      1      4 1
     4      4      5 1
     5      5      6 1
     6      6      7 1
     7      7      8 1
     8      8      9 1
     9      9     10 1
    10     10     11 1
    11     11     12 1
    12     12     13 1
    13     13     14 1
    14     14     15 2
    15     14     16 1
    16      4     17 1
    17      4     18 1
    18      5     19 1
    19      5     20 1
    20      6     21 1
    21      6     22 1
    22      7     23 1
    23      7     24 1
    24      8     25 1
    25      8     26 1
    26      9     27 1
    27      9     28 1
    28     10     29 1
    29     10     30 1
    30     11     31 1
    31     11     32 1
    32     12     33 1
    33     12     34 1
    34     13     35 1
    35     13     36 1
@<TRIPOS>SUBSTRUCTURE
1 FAH 1 TEMP 0 **** **** 0 ROOT
