@<TRIPOS>MOLECULE
FAH
 42 41 1 0 0
SMALL
GAFF2
c14_diacid at FA3 (all-atom)

@<TRIPOS>ATOM
     1 C1D       13.8850     9.4810    10.0940 c    1 FAH     0.7778
     2 O1D       13.4207     8.3207    10.2544 o    1 FAH    -0.8889
     3 O2D       14.1708     9.9766     8.9714 o    1 FAH    -0.8889
     4 C01       14.1160    10.3410    11.3390 c3   1 FAH    -0.1333
     5 C02       12.9080    11.2570    11.5800 c3   1 FAH    -0.1333
     6 C03       12.4260    10.9040    12.9800 c3   1 FAH    -0.1333
     7 C04       10.9280    11.0770    13.1260 c3   1 FAH    -0.1333
     8 C05       10.4880    10.8000    14.5530 c3   1 FAH    -0.1333
     9 C06        9.6760    11.9570    15.1230 c3   1 FAH    -0.1333
    10 C07       10.4130    12.6530    16.2680 c3   1 FAH    -0.1333
    11 C08        9.6020    12.6120    17.5740 c3   1 FAH    -0.1333
    12 C09       10.1460    13.5780    18.6310 c3   1 FAH    -0.1345
    13 C10       10.5780    12.8370    19.8840 c3   1 FAH    -0.1333
    14 C11        9.6401    13.1180    21.0727 c3   1 FAH    -0.1333
    15 C12        9.3716    11.8521    21.9075 c3   1 FAH    -0.1333
    16 C1P        8.4458    12.1294    23.0807 c    1 FAH     0.7778
    17 O1P        8.9656    12.4720    24.1762 o    1 FAH    -0.8889
    18 O2P        7.2056    12.0027    22.8984 o    1 FAH    -0.8889
    19 H1A       15.0732    10.8624    11.3439 hc   1 FAH     0.0667
    20 H1B       14.4212     9.7726    12.2176 hc   1 FAH     0.0667
    21 H2A       12.1445    11.2429    10.8022 hc   1 FAH     0.0667
    22 H2B       13.0775    12.3176    11.3944 hc   1 FAH     0.0667
    23 H3A       12.9954    11.3962    13.7685 hc   1 FAH     0.0667
    24 H3B       12.7835     9.9345    13.3270 hc   1 FAH     0.0667
    25 H4A       10.3502    10.5352    12.3772 hc   1 FAH     0.0667
    26 H4B       10.5562    12.0217    12.7293 hc   1 FAH     0.0667
    27 H5A       11.3021    10.4799    15.2033 hc   1 FAH     0.0667
    28 H5B       10.0070     9.8299    14.6778 hc   1 FAH     0.0667
    29 H6A        8.6498    11.6853    15.3704 hc   1 FAH     0.0667
    30 H6B        9.3101    12.6458    14.3615 hc   1 FAH     0.0667
    31 H7A       10.7686    13.6507    16.0106 hc   1 FAH     0.0667
    32 H7B       11.4429    12.3167    16.3874 hc   1 FAH     0.0667
    33 H8A        9.4522    11.6013    17.9538 hc   1 FAH     0.0667
    34 H8B        8.5283    12.7113    17.4149 hc   1 FAH     0.0667
    35 H9A        9.4853    14.4217    18.8305 hc   1 FAH     0.0667
    36 H9B       10.9031    14.2617    18.2470 hc   1 FAH     0.0667
    37 H10A      11.6321    12.9753    20.1247 hc   1 FAH     0.0667
    38 H10B      10.7555    11.7746    19.7168 hc   1 FAH     0.0667
    39 H11A       8.7308    13.6477    20.7884 hc   1 FAH     0.0667
    40 H11B       9.9501    13.9729    21.6736 hc   1 FAH     0.0667
    41 H12A      10.2808    11.3224    22.1918 hc   1 FAH     0.0667
    42 H12B       9.0615    10.9972    21.3065 hc   1 FAH     0.0667
@<TRIPOS>BOND
     1      1      2 2
     2      1      3 1
     3      1      4 1
     4      4      5 1
     5      5      6 1
     6      6      7 1
     7      7      8 1
     8      8      9 1
     9      9     10 1
    10     10     11 1
    11     11     12 1
    12     12     13 1
    13     13     14 1
    14     14     15 1
    15     15     16 1
    16     16     17 2
    17     16     18 1
    18      4     19 1
    19      4     20 1
    20      5     21 1
    21      5     22 1
    22      6     23 1
    23      6     24 1
    24      7     25 1
    25      7     26 1
    26      8     27 1
    27      8     28 1
    28      9     29 1
    29      9     30 1
    30     10     31 1
    31     10     32 1
    32     11     33 1
    33     11     34 1
    34     12     35 1
    35     12     36 1
    36     13     37 1
    37     13     38 1
    38     14     39 1
    39     14     40 1
    40     15     41 1
    41     15     42 1
@<TRIPOS>SUBSTRUCTURE
1 FAH 1 TEMP 0 **** **** 0 ROOT
