@<TRIPOS>MOLECULE
FAH
 49 48 1 0 0
SMALL
GAFF2
c16_monoacid at FA3 (all-atom)

@<TRIPOS>ATOM
     1 C1X       13.8850     9.4810    10.0940 c    1 FAH     0.8333
     2 O1D       13.4207     8.3207    10.2544 o    1 FAH    -0.9524
     3 O2D       14.1708     9.9766     8.9714 o    1 FAH    -0.9524
     4 C01       14.1160    10.3410    11.3390 c3   1 FAH    -0.1429
     5 C02       12.9080    11.2570    11.5800 c3   1 FAH    -0.1429
     6 C03       12.4260    10.9040    12.9800 c3   1 FAH    -0.1429
     7 C04       10.9280    11.0770    13.1260 c3   1 FAH    -0.1429
     8 C05       10.4880    10.8000    14.5530 c3   1 FAH    -0.1429
     9 C06        9.6760    11.9570    15.1230 c3   1 FAH    -0.1429
    10 C07       10.4130    12.6530    16.2680 c3   1 FAH    -0.1429
    11 C08        9.6020    12.6120    17.5740 c3   1 FAH    -0.1429
    12 C09       10.1460    13.5780    18.6310 c3   1 FAH    -0.1413
    13 C10       10.5780    12.8370    19.8840 c3   1 FAH    -0.1429
    14 C11        9.6401    13.1180    21.0727 c3   1 FAH    -0.1429
    15 C12        9.3716    11.8521    21.9075 c3   1 FAH    -0.1429
    16 C13        8.3968    10.8914    21.2015 c3   1 FAH    -0.1429
    17 C14        9.1370     9.8035    20.4013 c3   1 FAH    -0.1429
    18 C15        8.6092     9.6884    18.9592 c3   1 FAH    -0.1429
    19 H1A       15.0732    10.8624    11.3439 hc   1 FAH     0.0714
    20 H1B       14.4212     9.7726    12.2176 hc   1 FAH     0.0714
    21 H2A       12.1445    11.2429    10.8022 hc   1 FAH     0.0714
    22 H2B       13.0775    12.3176    11.3944 hc   1 FAH     0.0714
    23 H3A       12.9954    11.3962    13.7685 hc   1 FAH     0.0714
    24 H3B       12.7835     9.9345    13.3270 hc   1 FAH     0.0714
    25 H4A       10.3502    10.5352    12.3772 hc   1 FAH     0.0714
    26 H4B       10.5562    12.0217    12.7293 hc   1 FAH     0.0714
    27 H5A       11.3021    10.4799    15.2033 hc   1 FAH     0.0714
    28 H5B       10.0070     9.8299    14.6778 hc   1 FAH     0.0714
    29 H6A        8.6498    11.6853    15.3704 hc   1 FAH     0.0714
    30 H6B        9.3101    12.6458    14.3615 hc   1 FAH     0.0714
    31 H7A       10.7686    13.6507    16.0106 hc   1 FAH     0.0714
    32 H7B       11.4429    12.3167    16.3874 hc   1 FAH     0.0714
    33 H8A        9.4522    11.6013    17.9538 hc   1 FAH     0.0714
    34 H8B        8.5283    12.7113    17.4149 hc   1 FAH     0.0714
    35 H9A        9.4853    14.4217    18.8305 hc   1 FAH     0.0714
    36 H9B       10.9031    14.2617    18.2470 hc   1 FAH     0.0714
    37 H10A      11.6321    12.9753    20.1247 hc   1 FAH     0.0714
    38 H10B      10.7555    11.7746    19.7168 hc   1 FAH     0.0714
    39 H11A       8.7308    13.6477    20.7884 hc   1 FAH     0.0714
    40 H11B       9.9501    13.9729    21.6736 hc   1 FAH     0.0714
    41 H12A       9.0933    12.0671    22.9392 hc   1 FAH     0.0714
    42 H12B      10.2821    11.3638    22.2549 hc   1 FAH     0.0714
    43 H13A       7.6291    11.4049    20.6226 hc   1 FAH     0.0714
    44 H13B       7.6295    10.4918    21.8645 hc   1 FAH     0.0714
    45 H14A       9.1868     8.8460    20.9198 hc   1 FAH     0.0714
    46 H14B      10.2221     9.8904    20.4575 hc   1 FAH     0.0714
    47 H15A       8.7036     8.6572    18.6190 hc   1 FAH     0.0714
    48 H15B       7.5609     9.9857    18.9312 hc   1 FAH     0.0714
    49 H15C       9.1894    10.3409    18.3068 hc   1 FAH     0.0714
@<TRIPOS>BOND
     1      1      2 2
     2      1      3 1
     3      1      4 1
     4      4      5 1
     5      5      6 1
     6      6      7 1
     7      7      8 1
     8      8      9 1
     9      9     10 1
    10     10     11 1
    11     11     12 1
    12     12     13 1
    13     13     14 1
    14     14     15 1
    15     15     16 1
    16     16     17 1
    17     17     18 1
    18      4     19 1
    19      4     20 1
    20      5     21 1
    21      5     22 1
    22      6     23 1
    23      6     24 1
    24      7     25 1
    25      7     26 1
    26      8     27 1
    27      8     28 1
    28      9     29 1
    29      9     30 1
    30     10     31 1
    31     10     32 1
    32     11     33 1
    33     11     34 1
    34     12     35 1
    35     12     36 1
    36     13     37 1
    37     13     38 1
    38     14     39 1
    39     14     40 1
    40     15     41 1
    41     15     42 1
    42     16     43 1
    43     16     44 1
    44     17     45 1
    45     17     46 1
    46     18     47 1
    47     18     48 1
    48     18     49 1
@<TRIPOS>SUBSTRUCTURE
1 FAH 1 TEMP 0 **** **** 0 ROOT
