@<TRIPOS>MOLECULE
FAH
 48 47 1 0 0
SMALL
GAFF2
c16_diacid at FA3 (all-atom)

@<TRIPOS>ATOM
     1 C1D       13.8850     9.4810    10.0940 c    1 FAH     0.7778
     2 O1D       13.4207     8.3207    10.2544 o    1 FAH    -0.8889
     3 O2D       14.1708     9.9766     8.9714 o    1 FAH    -0.8889
     4 C01       14.1160    10.3410    11.3390 c3   1 FAH    -0.1333
     5 C02       12.9080    11.2570    11.5800 c3   1 FAH    -0.1333
     6 C03       12.4260    10.9040    12.9800 c3   1 FAH    -0.1333
     7 C04       10.9280    11.0770    13.1260 c3   1 FAH    -0.1333
     8 C05       10.4880    10.8000    14.5530 c3   1 FAH    -0.1333
     9 C06        9.6760    11.9570    15.1230 c3   1 FAH    -0.1333
    10 C07       10.4130    12.6530    16.2680 c3   1 FAH    -0.1333
    11 C08        9.6020    12.6120    17.5740 c3   1 FAH    -0.1333
    12 C09       10.1460    13.5780    18.6310 c3   1 FAH    -0.1347
    13 C10       10.5780    12.8370    19.8840 c3   1 FAH    -0.1333
    14 C11        9.6401    13.1180    21.0727 c3   1 FAH    -0.1333
    15 C12        9.3716    11.8521    21.9075 c3   1 FAH    -0.1333
    16 C13        8.3968    10.8914    21.2015 c3   1 FAH    -0.1333
    17 C14        9.1370     9.8035    20.4013 c3   1 FAH    -0.1333
    18 C1P        8.2492     9.1738    19.3403 c    1 FAH     0.7778
    19 O1P        7.5704     8.1621    19.6614 o    1 FAH    -0.8889
    20 O2P        8.2372     9.6954    18.1934 o    1 FAH    -0.8889
    21 H1A       15.0732    10.8624    11.3439 hc   1 FAH     0.0667
    22 H1B       14.4212     9.7726    12.2176 hc   1 FAH     0.0667
    23 H2A       12.1445    11.2429    10.8022 hc   1 FAH     0.0667
    24 H2B       13.0775    12.3176    11.3944 hc   1 FAH     0.0667
    25 H3A       12.9954    11.3962    13.7685 hc   1 FAH     0.0667
    26 H3B       12.7835     9.9345    13.3270 hc   1 FAH     0.0667
    27 H4A       10.3502    10.5352    12.3772 hc   1 FAH     0.0667
    28 H4B       10.5562    12.0217    12.7293 hc   1 FAH     0.0667
    29 H5A       11.3021    10.4799    15.2033 hc   1 FAH     0.0667
    30 H5B       10.0070     9.8299    14.6778 hc   1 FAH     0.0667
    31 H6A        8.6498    11.6853    15.3704 hc   1 FAH     0.0667
    32 H6B        9.3101    12.6458    14.3615 hc   1 FAH     0.0667
    33 H7A       10.7686    13.6507    16.0106 hc   1 FAH     0.0667
    34 H7B       11.4429    12.3167    16.3874 hc   1 FAH     0.0667
    35 H8A        9.4522    11.6013    17.9538 hc   1 FAH     0.0667
    36 H8B        8.5283    12.7113    17.4149 hc   1 FAH     0.0667
    37 H9A        9.4853    14.4217    18.8305 hc   1 FAH     0.0667
    38 H9B       10.9031    14.2617    18.2470 hc   1 FAH     0.0667
    39 H10A      11.6321    12.9753    20.1247 hc   1 FAH     0.0667
    40 H10B      10.7555    11.7746    19.7168 hc   1 FAH     0.0667
    41 H11A       8.7308    13.6477    20.7884 hc   1 FAH     0.0667
    42 H11B       9.9501    13.9729    21.6736 hc   1 FAH     0.0667
    43 H12A       9.0933    12.0671    22.9392 hc   1 FAH     0.0667
    44 H12B      10.2821    11.3638    22.2549 hc   1 FAH     0.0667
    45 H13A       7.6291    11.4049    20.6226 hc   1 FAH     0.0667
    46 H13B       7.6295    10.4918    21.8645 hc   1 FAH     0.0667
    47 H14A       9.6398     9.0710    21.0328 hc   1 FAH     0.0667
    48 H14B      10.1017    10.1334    20.0158 hc   1 FAH     0.0667
@<TRIPOS>BOND
     1      1      2 2
     2      1      3 1
     3      1      4 1
     4      4      5 1
     5      5      6 1
     6      6      7 1
     7      7      8 1
     8      8      9 1
     9      9     10 1
    10     10     11 1
    11     11     12 1
    12     12     13 1
    13     13     14 1
    14     14     15 1
    15     15     16 1
    16     16     17 1
    17     17     18 1
    18     18     19 2
    19     18     20 1
    20      4     21 1
    21      4     22 1
    22      5     23 1
    23      5     24 1
    24      6     25 1
    25      6     26 1
    26      7     27 1
    27      7     28 1
    28      8     29 1
    29      8     30 1
    30      9     31 1
    31      9     32 1
    32     10     33 1
    33     10     34 1
    34     11     35 1
    35     11     36 1
    36     12     37 1
    37     12     38 1
    38     13     39 1
    39     13     40 1
    40     14     41 1
    41     14     42 1
    42     15     43 1
    43     15     44 1
    44     16     45 1
    45     16     46 1
    46     17     47 1
    47     17     48 1
@<TRIPOS>SUBSTRUCTURE
1 FAH 1 TEMP 0 **** **** 0 ROOT
