@<TRIPOS>MOLECULE
FAH
 60 59 1 0 0
SMALL
GAFF2
C18 diacid at FA3 (all-atom)

@<TRIPOS>ATOM
     1 C1D       13.8850     9.4810    10.0940 c    1 FAH     0.7778
     2 O1D       13.4207     8.3207    10.2544 o    1 FAH    -0.8889
     3 O2D       14.1708     9.9766     8.9714 o    1 FAH    -0.8889
     4 C01       14.1160    10.3410    11.3390 c3   1 FAH    -0.1333
     5 C02       12.9080    11.2570    11.5800 c3   1 FAH    -0.1333
     6 C03       12.4260    10.9040    12.9800 c3   1 FAH    -0.1333
     7 C04       10.9280    11.0770    13.1260 c3   1 FAH    -0.1333
     8 C05       10.4880    10.8000    14.5530 c3   1 FAH    -0.1333
     9 C06        9.6760    11.9570    15.1230 c3   1 FAH    -0.1333
    10 C07       10.4130    12.6530    16.2680 c3   1 FAH    -0.1333
    11 C08        9.6020    12.6120    17.5740 c3   1 FAH    -0.1333
    12 C09       10.1460    13.5780    18.6310 c3   1 FAH    -0.1351
    13 C10       10.5780    12.8370    19.8840 c3   1 FAH    -0.1333
    14 C11        9.6401    13.1180    21.0727 c3   1 FAH    -0.1333
    15 C12        9.3716    11.8521    21.9075 c3   1 FAH    -0.1333
    16 C13        8.3968    10.8914    21.2015 c3   1 FAH    -0.1333
    17 C14        9.1370     9.8035    20.4013 c3   1 FAH    -0.1333
    18 C15        8.6092     9.6884    18.9592 c3   1 FAH    -0.1333
    19 C16        9.5656     8.8865    18.0571 c3   1 FAH    -0.1333
    20 C17        8.8148     8.1441    16.9361 c3   1 FAH    -0.1333
    21 C18        9.1215     6.6350    16.9375 c3   1 FAH    -0.1333
    22 C1P        8.5817     5.9431    15.6964 c    1 FAH     0.7778
    23 O1P        7.4111     5.4791    15.7397 o    1 FAH    -0.8889
    24 O2P        9.3323     5.8685    14.6872 o    1 FAH    -0.8889
    25 H1A       15.0732    10.8624    11.3439 hc   1 FAH     0.0667
    26 H1B       14.4212     9.7726    12.2176 hc   1 FAH     0.0667
    27 H2A       12.1445    11.2429    10.8022 hc   1 FAH     0.0667
    28 H2B       13.0775    12.3176    11.3944 hc   1 FAH     0.0667
    29 H3A       12.9954    11.3962    13.7685 hc   1 FAH     0.0667
    30 H3B       12.7835     9.9345    13.3270 hc   1 FAH     0.0667
    31 H4A       10.3502    10.5352    12.3772 hc   1 FAH     0.0667
    32 H4B       10.5562    12.0217    12.7293 hc   1 FAH     0.0667
    33 H5A       11.3021    10.4799    15.2033 hc   1 FAH     0.0667
    34 H5B       10.0070     9.8299    14.6778 hc   1 FAH     0.0667
    35 H6A        8.6498    11.6853    15.3704 hc   1 FAH     0.0667
    36 H6B        9.3101    12.6458    14.3615 hc   1 FAH     0.0667
    37 H7A       10.7686    13.6507    16.0106 hc   1 FAH     0.0667
    38 H7B       11.4429    12.3167    16.3874 hc   1 FAH     0.0667
    39 H8A        9.4522    11.6013    17.9538 hc   1 FAH     0.0667
    40 H8B        8.5283    12.7113    17.4149 hc   1 FAH     0.0667
    41 H9A        9.4853    14.4217    18.8305 hc   1 FAH     0.0667
    42 H9B       10.9031    14.2617    18.2470 hc   1 FAH     0.0667
    43 H10A      11.6321    12.9753    20.1247 hc   1 FAH     0.0667
    44 H10B      10.7555    11.7746    19.7168 hc   1 FAH     0.0667
    45 H11A       8.7308    13.6477    20.7884 hc   1 FAH     0.0667
    46 H11B       9.9501    13.9729    21.6736 hc   1 FAH     0.0667
    47 H12A       9.0933    12.0671    22.9392 hc   1 FAH     0.0667
    48 H12B      10.2821    11.3638    22.2549 hc   1 FAH     0.0667
    49 H13A       7.6291    11.4049    20.6226 hc   1 FAH     0.0667
    50 H13B       7.6295    10.4918    21.8645 hc   1 FAH     0.0667
    51 H14A       9.1868     8.8460    20.9198 hc   1 FAH     0.0667
    52 H14B      10.2221     9.8904    20.4575 hc   1 FAH     0.0667
    53 H15A       8.3139    10.6461    18.5306 hc   1 FAH     0.0667
    54 H15B       7.5760     9.3454    18.9045 hc   1 FAH     0.0667
    55 H16A      10.2493     8.2466    18.6150 hc   1 FAH     0.0667
    56 H16B      10.4100     9.4731    17.6952 hc   1 FAH     0.0667
    57 H17A       8.9349     8.6074    15.9568 hc   1 FAH     0.0667
    58 H17B       7.7481     8.3672    16.9108 hc   1 FAH     0.0667
    59 H18A       8.8379     6.1385    17.8655 hc   1 FAH     0.0667
    60 H18B      10.1689     6.4082    17.1363 hc   1 FAH     0.0667
@<TRIPOS>BOND
     1      1      2 2
     2      1      3 1
     3      1      4 1
     4      4      5 1
     5      5      6 1
     6      6      7 1
     7      7      8 1
     8      8      9 1
     9      9     10 1
    10     10     11 1
    11     11     12 1
    12     12     13 1
    13     13     14 1
    14     14     15 1
    15     15     16 1
    16     16     17 1
    17     17     18 1
    18     18     19 1
    19     19     20 1
    20     20     21 1
    21     21     22 1
    22     22     23 2
    23     22     24 1
    24      4     25 1
    25      4     26 1
    26      5     27 1
    27      5     28 1
    28      6     29 1
    29      6     30 1
    30      7     31 1
    31      7     32 1
    32      8     33 1
    33      8     34 1
    34      9     35 1
    35      9     36 1
    36     10     37 1
    37     10     38 1
    38     11     39 1
    39     11     40 1
    40     12     41 1
    41     12     42 1
    42     13     43 1
    43     13     44 1
    44     14     45 1
    45     14     46 1
    46     15     47 1
    47     15     48 1
    48     16     49 1
    49     16     50 1
    50     17     51 1
    51     17     52 1
    52     18     53 1
    53     18     54 1
    54     19     55 1
    55     19     56 1
    56     20     57 1
    57     20     58 1
    58     21     59 1
    59     21     60 1
@<TRIPOS>SUBSTRUCTURE
1 FAH 1 TEMP 0 **** **** 0 ROOT
