@<TRIPOS>MOLECULE
LNK
    87     0     0     0     0
SMALL
GAFF2
linker-C18

@<TRIPOS>ATOM
     1 N         -7.5710    -0.4480     1.9060 n    1 LNK -0.369750
     2 C         -6.5310    -1.2971     2.2289 c    1 LNK -0.077226
     3 O         -6.6851    -2.4800     2.5107 o    1 LNK -0.441167
     4 C13       -5.1792    -0.6136     2.1586 c3   1 LNK -0.077226
     5 C14       -4.0653    -1.4720     2.7645 c3   1 LNK -0.077226
     6 C15       -2.6600    -0.8633     2.6241 c3   1 LNK -0.077226
     7 N16       -2.3056    -0.7456     1.1965 n    1 LNK -0.369750
     8 C17       -2.5493     0.4895     3.3612 c3   1 LNK -0.077226
     9 O18       -3.2077     0.7082     4.3828 c3   1 LNK -0.441167
    10 C19       -1.5544     1.5138     2.8269 c3   1 LNK -0.077226
    11 C20       -1.4416     2.7510     3.7200 c3   1 LNK -0.077226
    12 C21       -0.6916     3.9107     3.0585 c3   1 LNK -0.077226
    13 C22        0.7787     3.6504     2.7110 c3   1 LNK -0.077226
    14 C23        1.7801     4.1008     3.7796 c3   1 LNK -0.077226
    15 C24        1.7865     3.3057     5.0864 c3   1 LNK -0.077226
    16 C25        2.0631     1.8048     4.9518 c3   1 LNK -0.077226
    17 C26        3.3452     1.4276     4.2044 c3   1 LNK -0.077226
    18 C27        4.6429     2.0270     4.7557 c3   1 LNK -0.077226
    19 C28        4.9801     1.5459     6.1690 c3   1 LNK -0.077226
    20 C29        6.2697     2.1533     6.7316 c3   1 LNK -0.077226
    21 C30        7.5184     1.7916     5.9220 c3   1 LNK -0.077226
    22 C31        8.7956     2.2404     6.6371 c3   1 LNK -0.077226
    23 C33       10.3309     0.6083     5.3956 c3   1 LNK -0.077226
    24 C34       11.6639     0.4685     4.6654 c3   1 LNK -0.077226
    25 O36       11.1474    -1.8458     4.4367 c3   1 LNK -0.441167
    26 O37       13.0612    -1.0227     3.5031 c3   1 LNK -0.441167
    27 C38      -13.0875     1.2384    -0.0065 c3   1 LNK -0.077226
    28 O39      -13.5774     2.1222     0.7032 c3   1 LNK -0.441167
    29 N40      -13.4002     1.1184    -1.3440 n    1 LNK -0.369750
    30 C41      -14.4505     1.9242    -1.9170 c3   1 LNK -0.077226
    31 H42      -12.8430    -0.1703     4.3898 hc   1 LNK 0.096825
    32 H43      -13.7438    -1.6879     4.2392 hc   1 LNK 0.096825
    33 H44      -14.5765    -0.1260     3.9784 hc   1 LNK 0.096825
    34 H45      -12.1694     0.8848     2.5507 hc   1 LNK 0.096825
    35 H46      -11.0783     0.8827     0.5443 hc   1 LNK 0.096825
    36 H47      -11.3544    -0.7154    -1.2494 hc   1 LNK 0.096825
    37 H48      -12.6613    -1.5332    -0.4385 hc   1 LNK 0.096825
    38 H49      -11.0757    -2.3498     1.3304 hc   1 LNK 0.096825
    39 H50      -10.7014    -2.8603    -0.3002 hc   1 LNK 0.096825
    40 H51       -9.0875    -0.7059    -0.3076 hc   1 LNK 0.096825
    41 H52       -8.6015    -2.2907     0.2564 hc   1 LNK 0.096825
    42 H53       -9.5661    -0.0396     2.0994 hc   1 LNK 0.096825
    43 H54       -9.1012    -1.6676     2.6168 hc   1 LNK 0.096825
    44 H55       -7.3569     0.5006     1.6244 hc   1 LNK 0.096825
    45 H56       -4.9766    -0.4064     1.1016 hc   1 LNK 0.096825
    46 H57       -5.2495     0.3433     2.6862 hc   1 LNK 0.096825
    47 H58       -4.2869    -1.6423     3.8262 hc   1 LNK 0.096825
    48 H59       -4.0723    -2.4657     2.2977 hc   1 LNK 0.096825
    49 H60       -1.9355    -1.5385     3.0968 hc   1 LNK 0.096825
    50 H61       -1.2983    -0.6049     1.1089 hc   1 LNK 0.096825
    51 H62       -2.4872    -1.6407     0.7379 hc   1 LNK 0.096825
    52 H63       -1.8896     1.8179     1.8283 hc   1 LNK 0.096825
    53 H64       -0.5805     1.0206     2.7441 hc   1 LNK 0.096825
    54 H65       -2.4499     3.1101     3.9646 hc   1 LNK 0.096825
    55 H66       -0.9817     2.4771     4.6735 hc   1 LNK 0.096825
    56 H67       -0.7714     4.7990     3.6975 hc   1 LNK 0.096825
    57 H68       -1.2200     4.1603     2.1288 hc   1 LNK 0.096825
    58 H69        0.9539     2.6094     2.4268 hc   1 LNK 0.096825
    59 H70        1.0033     4.2390     1.8109 hc   1 LNK 0.096825
    60 H71        1.5928     5.1560     4.0181 hc   1 LNK 0.096825
    61 H72        2.7845     4.0758     3.3394 hc   1 LNK 0.096825
    62 H73        2.5409     3.7461     5.7495 hc   1 LNK 0.096825
    63 H74        0.8317     3.4440     5.6039 hc   1 LNK 0.096825
    64 H75        2.0847     1.3658     5.9559 hc   1 LNK 0.096825
    65 H76        1.2196     1.3240     4.4442 hc   1 LNK 0.096825
    66 H77        3.2471     1.7202     3.1515 hc   1 LNK 0.096825
    67 H78        3.4334     0.3335     4.2001 hc   1 LNK 0.096825
    68 H79        5.4476     1.7382     4.0700 hc   1 LNK 0.096825
    69 H80        4.5975     3.1210     4.7360 hc   1 LNK 0.096825
    70 H81        4.1625     1.8055     6.8531 hc   1 LNK 0.096825
    71 H82        5.0607     0.4508     6.1716 hc   1 LNK 0.096825
    72 H83        6.3911     1.8003     7.7623 hc   1 LNK 0.096825
    73 H84        6.1683     3.2446     6.7814 hc   1 LNK 0.096825
    74 H85        7.4749     2.2681     4.9364 hc   1 LNK 0.096825
    75 H86        7.5396     0.7069     5.7662 hc   1 LNK 0.096825
    76 H87        8.7099     3.3021     6.9016 hc   1 LNK 0.096825
    77 H88        8.9042     1.6881     7.5770 hc   1 LNK 0.096825
    78 H89       10.9144     2.4475     6.3641 hc   1 LNK 0.096825
    79 H90        9.9830     2.6794     4.8884 hc   1 LNK 0.096825
    80 H91       10.3317    -0.0246     6.2906 hc   1 LNK 0.096825
    81 H92        9.5277     0.2449     4.7441 hc   1 LNK 0.096825
    82 H93       12.4809     0.7739     5.3306 hc   1 LNK 0.096825
    83 H94       11.6785     1.1423     3.8005 hc   1 LNK 0.096825
    84 H95      -13.2254     0.2294    -1.7917 hc   1 LNK 0.096825
    85 H96      -15.4158     1.5222    -1.5952 hc   1 LNK 0.096825
    86 H97      -14.3588     2.9630    -1.5856 hc   1 LNK 0.096825
    87 H98      -14.3727     1.8714    -3.0062 hc   1 LNK 0.096825
@<TRIPOS>BOND
@<TRIPOS>SUBSTRUCTURE
     1 LNK         1 TEMP              0 ****  ****    0 ROOT
