@<TRIPOS>MOLECULE
LNK
    53    52     0     0     0
SMALL
GAFF2
rebuilt no_linker linker-C18 (idealized clash-free geometry)

@<TRIPOS>ATOM
     1 C11       -8.8384    -0.6933     2.3937 c    1 LNK -0.081370
     2 O12       -9.1225    -1.6996     3.0602 o    1 LNK -0.502600
     3 C13       -9.8851     0.3457     2.0693 c3   1 LNK -0.081370
     4 C14      -11.2340    -0.0749     2.6818 c3   1 LNK -0.081370
     5 C15      -12.3843     0.4668     1.8129 c3   1 LNK -0.081370
     6 C16      -13.2318    -0.7084     1.2911 c3   1 LNK -0.081370
     7 C17      -14.3821    -0.1667     0.4222 c3   1 LNK -0.081370
     8 C18      -13.9413     1.1442    -0.2551 c3   1 LNK -0.081370
     9 C19      -15.0916     1.6859    -1.1241 c3   1 LNK -0.081370
    10 C20      -14.6508     2.9969    -1.8014 c3   1 LNK -0.081370
    11 C21      -15.8011     3.5386    -2.6703 c3   1 LNK -0.081370
    12 C22      -15.3603     4.8495    -3.3476 c3   1 LNK -0.081370
    13 C23      -16.5106     5.3912    -4.2166 c3   1 LNK -0.081370
    14 C24      -16.0698     6.7021    -4.8939 c3   1 LNK -0.081370
    15 C25      -17.2201     7.2438    -5.7628 c3   1 LNK -0.081370
    16 C26      -16.7793     8.5548    -6.4401 c3   1 LNK -0.081370
    17 C27      -17.9296     9.0965    -7.3091 c3   1 LNK -0.081370
    18 C28      -17.4888    10.4074    -7.9864 c3   1 LNK -0.081370
    19 C29      -18.6167    10.9385    -8.8384 c    1 LNK -0.081370
    20 O30      -19.6899    10.3206    -8.9017 o    1 LNK -0.502600
    21 O31      -18.4696    11.9926    -9.4747 o    1 LNK -0.502600
    22 H50       -9.9884     0.4316     0.9877 hc   1 LNK 0.095780
    23 H51       -9.5824     1.3075     2.4833 hc   1 LNK 0.095780
    24 H52      -11.3177     0.3317     3.6897 hc   1 LNK 0.095780
    25 H53      -11.2909    -1.1627     2.7226 hc   1 LNK 0.095780
    26 H54      -11.9723     1.0202     0.9690 hc   1 LNK 0.095780
    27 H55      -13.0105     1.1287     2.4110 hc   1 LNK 0.095780
    28 H56      -13.6437    -1.2618     2.1350 hc   1 LNK 0.095780
    29 H57      -12.6055    -1.3703     0.6930 hc   1 LNK 0.095780
    30 H58      -15.2527     0.0237     1.0498 hc   1 LNK 0.095780
    31 H59      -14.6378    -0.9016    -0.3411 hc   1 LNK 0.095780
    32 H60      -13.0707     0.9538    -0.8828 hc   1 LNK 0.095780
    33 H61      -13.6856     1.8792     0.5081 hc   1 LNK 0.095780
    34 H62      -15.9621     1.8764    -0.4964 hc   1 LNK 0.095780
    35 H63      -15.3473     0.9510    -1.8873 hc   1 LNK 0.095780
    36 H64      -13.7802     2.8064    -2.4290 hc   1 LNK 0.095780
    37 H65      -14.3951     3.7318    -1.0381 hc   1 LNK 0.095780
    38 H66      -16.6716     3.7290    -2.0427 hc   1 LNK 0.095780
    39 H67      -16.0568     2.8036    -3.4336 hc   1 LNK 0.095780
    40 H68      -14.4897     4.6591    -3.9753 hc   1 LNK 0.095780
    41 H69      -15.1046     5.5845    -2.5844 hc   1 LNK 0.095780
    42 H70      -17.3811     5.5816    -3.5889 hc   1 LNK 0.095780
    43 H71      -16.7663     4.6562    -4.9798 hc   1 LNK 0.095780
    44 H72      -15.1992     6.5117    -5.5215 hc   1 LNK 0.095780
    45 H73      -15.8141     7.4371    -4.1306 hc   1 LNK 0.095780
    46 H74      -18.0906     7.4343    -5.1352 hc   1 LNK 0.095780
    47 H75      -17.4758     6.5089    -6.5261 hc   1 LNK 0.095780
    48 H76      -15.9087     8.3643    -7.0678 hc   1 LNK 0.095780
    49 H77      -16.5236     9.2897    -5.6769 hc   1 LNK 0.095780
    50 H78      -18.8001     9.2869    -6.6814 hc   1 LNK 0.095780
    51 H79      -18.1853     8.3615    -8.0723 hc   1 LNK 0.095780
    52 H80      -16.6182    10.2170    -8.6140 hc   1 LNK 0.095780
    53 H81      -17.2331    11.1423    -7.2231 hc   1 LNK 0.095780
@<TRIPOS>BOND
     1      1      2 2
     2      1      3 1
     3      3      4 1
     4      4      5 1
     5      5      6 1
     6      6      7 1
     7      7      8 1
     8      8      9 1
     9      9     10 1
    10     10     11 1
    11     11     12 1
    12     12     13 1
    13     13     14 1
    14     14     15 1
    15     15     16 1
    16     16     17 1
    17     17     18 1
    18     18     19 1
    19     19     20 2
    20     19     21 1
    21      3     22 1
    22      3     23 1
    23      4     24 1
    24      4     25 1
    25      5     26 1
    26      5     27 1
    27      6     28 1
    28      6     29 1
    29      7     30 1
    30      7     31 1
    31      8     32 1
    32      8     33 1
    33      9     34 1
    34      9     35 1
    35     10     36 1
    36     10     37 1
    37     11     38 1
    38     11     39 1
    39     12     40 1
    40     12     41 1
    41     13     42 1
    42     13     43 1
    43     14     44 1
    44     14     45 1
    45     15     46 1
    46     15     47 1
    47     16     48 1
    48     16     49 1
    49     17     50 1
    50     17     51 1
    51     18     52 1
    52     18     53 1
@<TRIPOS>SUBSTRUCTURE
1 LNK 1 TEMP 0 **** **** 0 ROOT
