@<TRIPOS>MOLECULE
LNK
    87    86     0     0     0
SMALL
GAFF2
rebuilt gglu_1oeg linker-C18 (idealized clash-free geometry)

@<TRIPOS>ATOM
     1 C11       -8.8384    -0.6933     2.3937 c    1 LNK -0.065649
     2 O12       -9.1225    -1.6996     3.0602 o    1 LNK -0.389222
     3 C13       -9.8851     0.3457     2.0693 c3   1 LNK -0.065649
     4 C14      -11.2340    -0.0749     2.6818 c3   1 LNK -0.065649
     5 C15      -12.3843     0.4668     1.8129 c3   1 LNK -0.065649
     6 N16      -11.8297     1.2135     0.6745 n3   1 LNK -0.360800
     7 C17      -13.2153    -0.6855     1.3013 c    1 LNK -0.065649
     8 O18      -12.9149    -1.8495     1.6052 o    1 LNK -0.389222
     9 N19      -14.2695    -0.4519     0.5247 n    1 LNK -0.360800
    10 C20      -15.0730    -1.5660     0.0301 c3   1 LNK -0.065649
    11 C21      -16.2232    -1.0243    -0.8389 c3   1 LNK -0.065649
    12 O22      -16.6001     0.2751    -0.3759 os   1 LNK -0.389222
    13 C23      -17.6684     0.8094    -1.1621 c3   1 LNK -0.065649
    14 C24      -18.0459     2.2062    -0.6350 c3   1 LNK -0.065649
    15 O25      -19.1142     2.7405    -1.4212 os   1 LNK -0.389222
    16 C26      -19.4911     4.0399    -0.9582 c3   1 LNK -0.065649
    17 C27      -20.6189     4.5711    -1.8102 c    1 LNK -0.065649
    18 O28      -21.0659     3.8877    -2.7435 o    1 LNK -0.389222
    19 C29      -21.2026     5.9344    -1.5258 c3   1 LNK -0.065649
    20 C30      -22.3294     6.2314    -2.5326 c3   1 LNK -0.065649
    21 C31      -22.9246     7.6218    -2.2426 c3   1 LNK -0.065649
    22 C32      -24.0514     7.9189    -3.2494 c3   1 LNK -0.065649
    23 C33      -24.6466     9.3092    -2.9593 c3   1 LNK -0.065649
    24 C34      -25.7734     9.6063    -3.9662 c3   1 LNK -0.065649
    25 C35      -25.2043     9.5806    -5.3969 c3   1 LNK -0.065649
    26 C36      -24.1024    10.6481    -5.5311 c3   1 LNK -0.065649
    27 C37      -23.5333    10.6225    -6.9618 c3   1 LNK -0.065649
    28 C38      -22.4314    11.6899    -7.0960 c3   1 LNK -0.065649
    29 C39      -21.8624    11.6643    -8.5268 c3   1 LNK -0.065649
    30 C40      -20.7605    12.7318    -8.6609 c3   1 LNK -0.065649
    31 C41      -20.1914    12.7061   -10.0917 c3   1 LNK -0.065649
    32 C42      -19.0895    13.7736   -10.2258 c3   1 LNK -0.065649
    33 C43      -17.9615    13.4773    -9.2201 c3   1 LNK -0.065649
    34 C44      -18.5290    13.5035    -7.7888 c3   1 LNK -0.065649
    35 C45      -17.4230    13.2129    -6.8026 c    1 LNK -0.065649
    36 O46      -16.2706    13.0011    -7.2082 o    1 LNK -0.389222
    37 O47      -17.6673    13.1862    -5.5872 o    1 LNK -0.389222
    38 H66       -9.9884     0.4316     0.9877 hc   1 LNK 0.099147
    39 H67       -9.5824     1.3075     2.4833 hc   1 LNK 0.099147
    40 H68      -11.3177     0.3317     3.6897 hc   1 LNK 0.099147
    41 H69      -11.2909    -1.1627     2.7226 hc   1 LNK 0.099147
    42 H70      -13.0101     1.1287     2.4115 hc   1 LNK 0.099147
    43 H71      -12.5842     1.5817     0.1131 hn   1 LNK 0.099147
    44 H72      -10.8208     1.1877     0.7138 hn   1 LNK 0.099147
    45 H73      -14.5142     0.4962     0.2772 hn   1 LNK 0.099147
    46 H74      -15.4849    -2.1195     0.8739 hc   1 LNK 0.099147
    47 H75      -14.4467    -2.2280    -0.5681 hc   1 LNK 0.099147
    48 H76      -17.0784    -1.6966    -0.7695 hc   1 LNK 0.099147
    49 H77      -15.8951    -0.9592    -1.8762 hc   1 LNK 0.099147
    50 H78      -18.5337     0.1499    -1.0950 hc   1 LNK 0.099147
    51 H79      -17.3503     0.8873    -2.2018 hc   1 LNK 0.099147
    52 H80      -17.1807     2.8657    -0.7021 hc   1 LNK 0.099147
    53 H81      -18.3640     2.1282     0.4047 hc   1 LNK 0.099147
    54 H82      -18.6359     4.7122    -1.0276 hc   1 LNK 0.099147
    55 H83      -19.8192     3.9748     0.0791 hc   1 LNK 0.099147
    56 H84      -20.4228     6.6901    -1.6202 hc   1 LNK 0.099147
    57 H85      -21.6061     5.9526    -0.5134 hc   1 LNK 0.099147
    58 H86      -23.1092     5.4757    -2.4383 hc   1 LNK 0.099147
    59 H87      -21.9258     6.2132    -3.5450 hc   1 LNK 0.099147
    60 H88      -22.1448     8.3775    -2.3369 hc   1 LNK 0.099147
    61 H89      -23.3281     7.6400    -1.2302 hc   1 LNK 0.099147
    62 H90      -24.8312     7.1631    -3.1551 hc   1 LNK 0.099147
    63 H91      -23.6478     7.9006    -4.2618 hc   1 LNK 0.099147
    64 H92      -23.8668    10.0649    -3.0537 hc   1 LNK 0.099147
    65 H93      -25.0501     9.3275    -1.9469 hc   1 LNK 0.099147
    66 H94      -26.1941    10.5905    -3.7603 hc   1 LNK 0.099147
    67 H95      -26.5531     8.8505    -3.8719 hc   1 LNK 0.099147
    68 H96      -26.0023     9.7910    -6.1090 hc   1 LNK 0.099147
    69 H97      -24.7834     8.5965    -5.6027 hc   1 LNK 0.099147
    70 H98      -23.3044    10.4377    -4.8191 hc   1 LNK 0.099147
    71 H99      -24.5233    11.6323    -5.3253 hc   1 LNK 0.099147
    72 H100     -24.3313    10.8329    -7.6739 hc   1 LNK 0.099147
    73 H101     -23.1124     9.6383    -7.1676 hc   1 LNK 0.099147
    74 H102     -21.6334    11.4795    -6.3840 hc   1 LNK 0.099147
    75 H103     -22.8523    12.6741    -6.8902 hc   1 LNK 0.099147
    76 H104     -22.6604    11.8747    -9.2388 hc   1 LNK 0.099147
    77 H105     -21.4415    10.6801    -8.7326 hc   1 LNK 0.099147
    78 H106     -19.9625    12.5214    -7.9489 hc   1 LNK 0.099147
    79 H107     -21.1814    13.7159    -8.4551 hc   1 LNK 0.099147
    80 H108     -20.9894    12.9165   -10.8037 hc   1 LNK 0.099147
    81 H109     -19.7705    11.7219   -10.2975 hc   1 LNK 0.099147
    82 H110     -19.5104    14.7577   -10.0199 hc   1 LNK 0.099147
    83 H111     -18.6871    13.7548   -11.2387 hc   1 LNK 0.099147
    84 H112     -17.1821    14.2332    -9.3156 hc   1 LNK 0.099147
    85 H113     -17.5408    12.4931    -9.4260 hc   1 LNK 0.099147
    86 H114     -19.3085    12.7475    -7.6933 hc   1 LNK 0.099147
    87 H115     -18.9498    14.4877    -7.5829 hc   1 LNK 0.099147
@<TRIPOS>BOND
     1      1      2 2
     2      1      3 1
     3      3      4 1
     4      4      5 1
     5      5      6 1
     6      5      7 1
     7      7      8 2
     8      7      9 1
     9      9     10 1
    10     10     11 1
    11     11     12 1
    12     12     13 1
    13     13     14 1
    14     14     15 1
    15     15     16 1
    16     16     17 1
    17     17     18 2
    18     17     19 1
    19     19     20 1
    20     20     21 1
    21     21     22 1
    22     22     23 1
    23     23     24 1
    24     24     25 1
    25     25     26 1
    26     26     27 1
    27     27     28 1
    28     28     29 1
    29     29     30 1
    30     30     31 1
    31     31     32 1
    32     32     33 1
    33     33     34 1
    34     34     35 1
    35     35     36 2
    36     35     37 1
    37      3     38 1
    38      3     39 1
    39      4     40 1
    40      4     41 1
    41      5     42 1
    42      6     43 1
    43      6     44 1
    44      9     45 1
    45     10     46 1
    46     10     47 1
    47     11     48 1
    48     11     49 1
    49     13     50 1
    50     13     51 1
    51     14     52 1
    52     14     53 1
    53     16     54 1
    54     16     55 1
    55     19     56 1
    56     19     57 1
    57     20     58 1
    58     20     59 1
    59     21     60 1
    60     21     61 1
    61     22     62 1
    62     22     63 1
    63     23     64 1
    64     23     65 1
    65     24     66 1
    66     24     67 1
    67     25     68 1
    68     25     69 1
    69     26     70 1
    70     26     71 1
    71     27     72 1
    72     27     73 1
    73     28     74 1
    74     28     75 1
    75     29     76 1
    76     29     77 1
    77     30     78 1
    78     30     79 1
    79     31     80 1
    80     31     81 1
    81     32     82 1
    82     32     83 1
    83     33     84 1
    84     33     85 1
    85     34     86 1
    86     34     87 1
@<TRIPOS>SUBSTRUCTURE
1 LNK 1 TEMP 0 **** **** 0 ROOT
