@<TRIPOS>MOLECULE
LNK
   108   107     0     0     0
SMALL
GAFF2
rebuilt gglu_2oeg linker-C18 (idealized clash-free geometry)

@<TRIPOS>ATOM
     1 C11       -8.8384    -0.6933     2.3937 c    1 LNK -0.033535
     2 O12       -9.1225    -1.6996     3.0602 o    1 LNK -0.079333
     3 C13       -9.8851     0.3457     2.0693 c3   1 LNK -0.033535
     4 C14      -11.2340    -0.0749     2.6818 c3   1 LNK -0.033535
     5 C15      -12.3843     0.4668     1.8129 c3   1 LNK -0.033535
     6 N16      -11.8297     1.2135     0.6745 n3   1 LNK -0.105167
     7 C17      -13.2153    -0.6855     1.3013 c    1 LNK -0.033535
     8 O18      -12.9149    -1.8495     1.6052 o    1 LNK -0.079333
     9 N19      -14.2695    -0.4519     0.5247 n    1 LNK -0.105167
    10 C20      -15.0730    -1.5660     0.0301 c3   1 LNK -0.033535
    11 C21      -16.2232    -1.0243    -0.8389 c3   1 LNK -0.033535
    12 O22      -16.6001     0.2751    -0.3759 os   1 LNK -0.079333
    13 C23      -17.6684     0.8094    -1.1621 c3   1 LNK -0.033535
    14 C24      -18.0459     2.2062    -0.6350 c3   1 LNK -0.033535
    15 O25      -19.1142     2.7405    -1.4212 os   1 LNK -0.079333
    16 C26      -19.4911     4.0399    -0.9582 c3   1 LNK -0.033535
    17 C27      -20.6189     4.5711    -1.8102 c    1 LNK -0.033535
    18 O28      -21.0659     3.8877    -2.7435 o    1 LNK -0.079333
    19 N29      -21.1330     5.7719    -1.5597 n    1 LNK -0.105167
    20 C30      -22.2235     6.2854    -2.3835 c3   1 LNK -0.033535
    21 C31      -22.6294     7.6848    -1.8849 c3   1 LNK -0.033535
    22 O32      -23.6975     8.1878    -2.6918 os   1 LNK -0.079333
    23 C33      -24.1003     9.4887    -2.2557 c3   1 LNK -0.033535
    24 C34      -25.2496     9.9964    -3.1462 c3   1 LNK -0.033535
    25 O35      -24.8065    10.0656    -4.5041 os   1 LNK -0.079333
    26 C36      -23.6964    10.9573    -4.6361 c3   1 LNK -0.033535
    27 C37      -23.2569    11.0047    -6.0799 c    1 LNK -0.033535
    28 O38      -23.8501    10.3257    -6.9312 o    1 LNK -0.079333
    29 C39      -22.0950    11.8789    -6.4871 c3   1 LNK -0.033535
    30 C40      -21.8564    11.7439    -8.0025 c3   1 LNK -0.033535
    31 C41      -20.6714    12.6355    -8.4178 c3   1 LNK -0.033535
    32 C42      -20.4328    12.5005    -9.9332 c3   1 LNK -0.033535
    33 C43      -19.2478    13.3920   -10.3485 c3   1 LNK -0.033535
    34 C44      -17.9825    12.9518    -9.5891 c3   1 LNK -0.033535
    35 C45      -18.2193    13.0872    -8.0735 c3   1 LNK -0.033535
    36 C46      -16.9539    12.6470    -7.3141 c3   1 LNK -0.033535
    37 C47      -17.1907    12.7823    -5.7985 c3   1 LNK -0.033535
    38 C48      -17.5090    14.2499    -5.4569 c3   1 LNK -0.033535
    39 C49      -17.7459    14.3852    -3.9413 c3   1 LNK -0.033535
    40 C50      -18.0642    15.8527    -3.5997 c3   1 LNK -0.033535
    41 C51      -18.3010    15.9881    -2.0841 c3   1 LNK -0.033535
    42 C52      -18.6193    17.4556    -1.7426 c3   1 LNK -0.033535
    43 C53      -18.8561    17.5910    -0.2269 c3   1 LNK -0.033535
    44 C54      -20.0404    16.6992     0.1900 c3   1 LNK -0.033535
    45 C55      -20.2726    16.8319     1.6761 c    1 LNK -0.033535
    46 O56      -19.5504    17.5795     2.3522 o    1 LNK -0.079333
    47 O57      -21.1856    16.1932     2.2205 o    1 LNK -0.079333
    48 H76       -9.9884     0.4316     0.9877 hc   1 LNK 0.071633
    49 H77       -9.5824     1.3075     2.4833 hc   1 LNK 0.071633
    50 H78      -11.3177     0.3317     3.6897 hc   1 LNK 0.071633
    51 H79      -11.2909    -1.1627     2.7226 hc   1 LNK 0.071633
    52 H80      -13.0101     1.1287     2.4115 hc   1 LNK 0.071633
    53 H81      -12.5842     1.5817     0.1131 hn   1 LNK 0.071633
    54 H82      -10.8208     1.1877     0.7138 hn   1 LNK 0.071633
    55 H83      -14.5142     0.4962     0.2772 hn   1 LNK 0.071633
    56 H84      -15.4849    -2.1195     0.8739 hc   1 LNK 0.071633
    57 H85      -14.4467    -2.2280    -0.5681 hc   1 LNK 0.071633
    58 H86      -17.0784    -1.6966    -0.7695 hc   1 LNK 0.071633
    59 H87      -15.8951    -0.9592    -1.8762 hc   1 LNK 0.071633
    60 H88      -18.5337     0.1499    -1.0950 hc   1 LNK 0.071633
    61 H89      -17.3503     0.8873    -2.2018 hc   1 LNK 0.071633
    62 H90      -17.1807     2.8657    -0.7021 hc   1 LNK 0.071633
    63 H91      -18.3640     2.1282     0.4047 hc   1 LNK 0.071633
    64 H92      -18.6359     4.7122    -1.0276 hc   1 LNK 0.071633
    65 H93      -19.8192     3.9748     0.0791 hc   1 LNK 0.071633
    66 H94      -20.7690     6.3285    -0.7996 hn   1 LNK 0.071633
    67 H95      -23.0787     5.6131    -2.3141 hc   1 LNK 0.071633
    68 H96      -21.8953     6.3506    -3.4209 hc   1 LNK 0.071633
    69 H97      -21.7742     8.3571    -1.9543 hc   1 LNK 0.071633
    70 H98      -22.9575     7.6196    -0.8475 hc   1 LNK 0.071633
    71 H99      -23.2555    10.1737    -2.3276 hc   1 LNK 0.071633
    72 H100     -24.4388     9.4362    -1.2209 hc   1 LNK 0.071633
    73 H101     -25.5561    10.9880    -2.8133 hc   1 LNK 0.071633
    74 H102     -26.0944     9.3114    -3.0744 hc   1 LNK 0.071633
    75 H103     -22.8717    10.6046    -4.0168 hc   1 LNK 0.071633
    76 H104     -23.9922    11.9556    -4.3136 hc   1 LNK 0.071633
    77 H105     -21.1997    11.5667    -5.9493 hc   1 LNK 0.071633
    78 H106     -22.3203    12.9178    -6.2461 hc   1 LNK 0.071633
    79 H107     -22.7517    12.0561    -8.5403 hc   1 LNK 0.071633
    80 H108     -21.6311    10.7050    -8.2435 hc   1 LNK 0.071633
    81 H109     -19.7762    12.3233    -7.8800 hc   1 LNK 0.071633
    82 H110     -20.8967    13.6744    -8.1768 hc   1 LNK 0.071633
    83 H111     -21.3281    12.8126   -10.4710 hc   1 LNK 0.071633
    84 H112     -20.2075    11.4616   -10.1742 hc   1 LNK 0.071633
    85 H113     -19.4731    14.4309   -10.1074 hc   1 LNK 0.071633
    86 H114     -19.0795    13.2959   -11.4211 hc   1 LNK 0.071633
    87 H115     -17.1442    13.5834    -9.8835 hc   1 LNK 0.071633
    88 H116     -17.7573    11.9129    -9.8301 hc   1 LNK 0.071633
    89 H117     -19.0575    12.4557    -7.7791 hc   1 LNK 0.071633
    90 H118     -18.4444    14.1261    -7.8325 hc   1 LNK 0.071633
    91 H119     -16.1157    13.2785    -7.6085 hc   1 LNK 0.071633
    92 H120     -16.7288    11.6081    -7.5551 hc   1 LNK 0.071633
    93 H121     -16.2947    12.4707    -5.2617 hc   1 LNK 0.071633
    94 H122     -18.0291    12.1510    -5.5041 hc   1 LNK 0.071633
    95 H123     -18.4051    14.5615    -5.9937 hc   1 LNK 0.071633
    96 H124     -16.6707    14.8813    -5.7513 hc   1 LNK 0.071633
    97 H125     -16.8499    14.0736    -3.4045 hc   1 LNK 0.071633
    98 H126     -18.5842    13.7538    -3.6469 hc   1 LNK 0.071633
    99 H127     -18.9602    16.1644    -4.1365 hc   1 LNK 0.071633
   100 H128     -17.2258    16.4841    -3.8941 hc   1 LNK 0.071633
   101 H129     -17.4050    15.6765    -1.5473 hc   1 LNK 0.071633
   102 H130     -19.1394    15.3567    -1.7898 hc   1 LNK 0.071633
   103 H131     -19.5153    17.7673    -2.2793 hc   1 LNK 0.071633
   104 H132     -17.7810    18.0870    -2.0369 hc   1 LNK 0.071633
   105 H133     -19.0814    18.6298     0.0141 hc   1 LNK 0.071633
   106 H134     -17.9602    17.2792     0.3099 hc   1 LNK 0.071633
   107 H135     -19.8151    15.6603    -0.0510 hc   1 LNK 0.071633
   108 H136     -20.9364    17.0109    -0.3468 hc   1 LNK 0.071633
@<TRIPOS>BOND
     1      1      2 2
     2      1      3 1
     3      3      4 1
     4      4      5 1
     5      5      6 1
     6      5      7 1
     7      7      8 2
     8      7      9 1
     9      9     10 1
    10     10     11 1
    11     11     12 1
    12     12     13 1
    13     13     14 1
    14     14     15 1
    15     15     16 1
    16     16     17 1
    17     17     18 2
    18     17     19 1
    19     19     20 1
    20     20     21 1
    21     21     22 1
    22     22     23 1
    23     23     24 1
    24     24     25 1
    25     25     26 1
    26     26     27 1
    27     27     28 2
    28     27     29 1
    29     29     30 1
    30     30     31 1
    31     31     32 1
    32     32     33 1
    33     33     34 1
    34     34     35 1
    35     35     36 1
    36     36     37 1
    37     37     38 1
    38     38     39 1
    39     39     40 1
    40     40     41 1
    41     41     42 1
    42     42     43 1
    43     43     44 1
    44     44     45 1
    45     45     46 2
    46     45     47 1
    47      3     48 1
    48      3     49 1
    49      4     50 1
    50      4     51 1
    51      5     52 1
    52      6     53 1
    53      6     54 1
    54      9     55 1
    55     10     56 1
    56     10     57 1
    57     11     58 1
    58     11     59 1
    59     13     60 1
    60     13     61 1
    61     14     62 1
    62     14     63 1
    63     16     64 1
    64     16     65 1
    65     19     66 1
    66     20     67 1
    67     20     68 1
    68     21     69 1
    69     21     70 1
    70     23     71 1
    71     23     72 1
    72     24     73 1
    73     24     74 1
    74     26     75 1
    75     26     76 1
    76     29     77 1
    77     29     78 1
    78     30     79 1
    79     30     80 1
    80     31     81 1
    81     31     82 1
    82     32     83 1
    83     32     84 1
    84     33     85 1
    85     33     86 1
    86     34     87 1
    87     34     88 1
    88     35     89 1
    89     35     90 1
    90     36     91 1
    91     36     92 1
    92     37     93 1
    93     37     94 1
    94     38     95 1
    95     38     96 1
    96     39     97 1
    97     39     98 1
    98     40     99 1
    99     40    100 1
   100     41    101 1
   101     41    102 1
   102     42    103 1
   103     42    104 1
   104     43    105 1
   105     43    106 1
   106     44    107 1
   107     44    108 1
@<TRIPOS>SUBSTRUCTURE
1 LNK 1 TEMP 0 **** **** 0 ROOT
