@<TRIPOS>MOLECULE
LNK
   129   128     0     0     0
SMALL
GAFF2
rebuilt gglu_3oeg linker-C18 (idealized clash-free geometry)

@<TRIPOS>ATOM
     1 C11       -8.8384    -0.6933     2.3937 c    1 LNK -0.049041
     2 O12       -9.1225    -1.6996     3.0602 o    1 LNK -0.371800
     3 C13       -9.8851     0.3457     2.0693 c3   1 LNK -0.049041
     4 C14      -11.2340    -0.0749     2.6818 c3   1 LNK -0.049041
     5 C15      -12.3843     0.4668     1.8129 c3   1 LNK -0.049041
     6 N16      -11.8297     1.2135     0.6745 n3   1 LNK -0.359000
     7 C17      -13.2153    -0.6855     1.3013 c    1 LNK -0.049041
     8 O18      -12.9149    -1.8495     1.6052 o    1 LNK -0.371800
     9 N19      -14.2695    -0.4519     0.5247 n    1 LNK -0.359000
    10 C20      -15.0730    -1.5660     0.0301 c3   1 LNK -0.049041
    11 C21      -16.2232    -1.0243    -0.8389 c3   1 LNK -0.049041
    12 O22      -16.6001     0.2751    -0.3759 os   1 LNK -0.371800
    13 C23      -17.6684     0.8094    -1.1621 c3   1 LNK -0.049041
    14 C24      -18.0459     2.2062    -0.6350 c3   1 LNK -0.049041
    15 O25      -19.1142     2.7405    -1.4212 os   1 LNK -0.371800
    16 C26      -19.4911     4.0399    -0.9582 c3   1 LNK -0.049041
    17 C27      -20.6189     4.5711    -1.8102 c    1 LNK -0.049041
    18 O28      -21.0659     3.8877    -2.7435 o    1 LNK -0.371800
    19 N29      -21.1330     5.7719    -1.5597 n    1 LNK -0.359000
    20 C30      -22.2235     6.2854    -2.3835 c3   1 LNK -0.049041
    21 C31      -22.6294     7.6848    -1.8849 c3   1 LNK -0.049041
    22 O32      -23.6975     8.1878    -2.6918 os   1 LNK -0.371800
    23 C33      -24.1003     9.4887    -2.2557 c3   1 LNK -0.049041
    24 C34      -25.2496     9.9964    -3.1462 c3   1 LNK -0.049041
    25 O35      -24.8065    10.0656    -4.5041 os   1 LNK -0.371800
    26 C36      -23.6964    10.9573    -4.6361 c3   1 LNK -0.049041
    27 C37      -23.2569    11.0047    -6.0799 c    1 LNK -0.049041
    28 O38      -23.8501    10.3257    -6.9312 o    1 LNK -0.371800
    29 N39      -22.2335    11.7747    -6.4386 n    1 LNK -0.359000
    30 C40      -21.8085    11.8205    -7.8346 c3   1 LNK -0.049041
    31 C41      -20.6130    12.7808    -7.9768 c3   1 LNK -0.049041
    32 O42      -20.1968    12.8257    -9.3441 os   1 LNK -0.371800
    33 C43      -19.0858    13.7100    -9.5128 c3   1 LNK -0.049041
    34 C44      -17.9049    13.2218    -8.6533 c3   1 LNK -0.049041
    35 O45      -18.2925    13.2016    -7.2770 os   1 LNK -0.371800
    36 C46      -17.2172    12.7520    -6.4484 c3   1 LNK -0.049041
    37 C47      -17.6623    12.7437    -5.0055 c    1 LNK -0.049041
    38 O48      -18.8137    13.0965    -4.7098 o    1 LNK -0.371800
    39 C49      -16.7052    12.3060    -3.9226 c3   1 LNK -0.049041
    40 C50      -17.4047    12.3908    -2.5533 c3   1 LNK -0.049041
    41 C51      -17.8465    13.8425    -2.2907 c3   1 LNK -0.049041
    42 C52      -18.5459    13.9273    -0.9214 c3   1 LNK -0.049041
    43 C53      -18.9877    15.3791    -0.6588 c3   1 LNK -0.049041
    44 C54      -19.6872    15.4639     0.7105 c3   1 LNK -0.049041
    45 C55      -20.1289    16.9156     0.9731 c3   1 LNK -0.049041
    46 C56      -20.8284    17.0004     2.3425 c3   1 LNK -0.049041
    47 C57      -22.0631    16.0801     2.3469 c3   1 LNK -0.049041
    48 C58      -21.6227    14.6278     2.0853 c3   1 LNK -0.049041
    49 C59      -22.8575    13.7075     2.0898 c3   1 LNK -0.049041
    50 C60      -22.4171    12.2551     1.8282 c3   1 LNK -0.049041
    51 C61      -23.6518    11.3348     1.8326 c3   1 LNK -0.049041
    52 C62      -23.2114     9.8825     1.5710 c3   1 LNK -0.049041
    53 C63      -24.4462     8.9622     1.5755 c3   1 LNK -0.049041
    54 C64      -24.0058     7.5099     1.3139 c3   1 LNK -0.049041
    55 C65      -25.2165     6.6075     1.3183 c    1 LNK -0.049041
    56 O66      -26.3442     7.0841     1.5146 o    1 LNK -0.371800
    57 O67      -25.0829     5.3899     1.1255 o    1 LNK -0.371800
    58 H86       -9.9884     0.4316     0.9877 hc   1 LNK 0.105500
    59 H87       -9.5824     1.3075     2.4833 hc   1 LNK 0.105500
    60 H88      -11.3177     0.3317     3.6897 hc   1 LNK 0.105500
    61 H89      -11.2909    -1.1627     2.7226 hc   1 LNK 0.105500
    62 H90      -13.0101     1.1287     2.4115 hc   1 LNK 0.105500
    63 H91      -12.5842     1.5817     0.1131 hn   1 LNK 0.105500
    64 H92      -10.8208     1.1877     0.7138 hn   1 LNK 0.105500
    65 H93      -14.5142     0.4962     0.2772 hn   1 LNK 0.105500
    66 H94      -15.4849    -2.1195     0.8739 hc   1 LNK 0.105500
    67 H95      -14.4467    -2.2280    -0.5681 hc   1 LNK 0.105500
    68 H96      -17.0784    -1.6966    -0.7695 hc   1 LNK 0.105500
    69 H97      -15.8951    -0.9592    -1.8762 hc   1 LNK 0.105500
    70 H98      -18.5337     0.1499    -1.0950 hc   1 LNK 0.105500
    71 H99      -17.3503     0.8873    -2.2018 hc   1 LNK 0.105500
    72 H100     -17.1807     2.8657    -0.7021 hc   1 LNK 0.105500
    73 H101     -18.3640     2.1282     0.4047 hc   1 LNK 0.105500
    74 H102     -18.6359     4.7122    -1.0276 hc   1 LNK 0.105500
    75 H103     -19.8192     3.9748     0.0791 hc   1 LNK 0.105500
    76 H104     -20.7690     6.3285    -0.7996 hn   1 LNK 0.105500
    77 H105     -23.0787     5.6131    -2.3141 hc   1 LNK 0.105500
    78 H106     -21.8953     6.3506    -3.4209 hc   1 LNK 0.105500
    79 H107     -21.7742     8.3571    -1.9543 hc   1 LNK 0.105500
    80 H108     -22.9575     7.6196    -0.8475 hc   1 LNK 0.105500
    81 H109     -23.2555    10.1737    -2.3276 hc   1 LNK 0.105500
    82 H110     -24.4388     9.4362    -1.2209 hc   1 LNK 0.105500
    83 H111     -25.5561    10.9880    -2.8133 hc   1 LNK 0.105500
    84 H112     -26.0944     9.3114    -3.0744 hc   1 LNK 0.105500
    85 H113     -22.8717    10.6046    -4.0168 hc   1 LNK 0.105500
    86 H114     -23.9922    11.9556    -4.3136 hc   1 LNK 0.105500
    87 H115     -21.7503    12.3278    -5.7452 hn   1 LNK 0.105500
    88 H116     -22.6332    12.1732    -8.4538 hc   1 LNK 0.105500
    89 H117     -21.5127    10.8222    -8.1571 hc   1 LNK 0.105500
    90 H118     -19.7883    12.4281    -7.3575 hc   1 LNK 0.105500
    91 H119     -20.9088    13.7791    -7.6543 hc   1 LNK 0.105500
    92 H120     -19.3708    14.7148    -9.2009 hc   1 LNK 0.105500
    93 H121     -18.7897    13.7251   -10.5617 hc   1 LNK 0.105500
    94 H122     -17.0585    13.8963    -8.7824 hc   1 LNK 0.105500
    95 H123     -17.6199    12.2169    -8.9651 hc   1 LNK 0.105500
    96 H124     -16.3660    13.4232    -6.5620 hc   1 LNK 0.105500
    97 H125     -16.9274    11.7438    -6.7447 hc   1 LNK 0.105500
    98 H126     -15.8315    12.9576    -3.9251 hc   1 LNK 0.105500
    99 H127     -16.3929    11.2782    -4.1078 hc   1 LNK 0.105500
   100 H128     -16.7133    12.0747    -1.7722 hc   1 LNK 0.105500
   101 H129     -18.2785    11.7392    -2.5509 hc   1 LNK 0.105500
   102 H130     -18.5379    14.1586    -3.0718 hc   1 LNK 0.105500
   103 H131     -16.9726    14.4941    -2.2931 hc   1 LNK 0.105500
   104 H132     -17.8545    13.6113    -0.1403 hc   1 LNK 0.105500
   105 H133     -19.4198    13.2758    -0.9190 hc   1 LNK 0.105500
   106 H134     -19.6791    15.6951    -1.4399 hc   1 LNK 0.105500
   107 H135     -18.1139    16.0306    -0.6612 hc   1 LNK 0.105500
   108 H136     -18.9957    15.1478     1.4917 hc   1 LNK 0.105500
   109 H137     -20.5610    14.8123     0.7129 hc   1 LNK 0.105500
   110 H138     -20.8204    17.2317     0.1920 hc   1 LNK 0.105500
   111 H139     -19.2551    17.5671     0.9707 hc   1 LNK 0.105500
   112 H140     -21.1408    18.0281     2.5276 hc   1 LNK 0.105500
   113 H141     -20.1370    16.6842     3.1236 hc   1 LNK 0.105500
   114 H142     -22.7544    16.3962     1.5657 hc   1 LNK 0.105500
   115 H143     -22.5576    16.1406     3.3164 hc   1 LNK 0.105500
   116 H144     -20.9314    14.3117     2.8665 hc   1 LNK 0.105500
   117 H145     -21.1282    14.5673     1.1158 hc   1 LNK 0.105500
   118 H146     -23.5488    14.0236     1.3086 hc   1 LNK 0.105500
   119 H147     -23.3520    13.7679     3.0592 hc   1 LNK 0.105500
   120 H148     -21.7258    11.9390     2.6094 hc   1 LNK 0.105500
   121 H149     -21.9226    12.1947     0.8587 hc   1 LNK 0.105500
   122 H150     -24.3431    11.6509     1.0514 hc   1 LNK 0.105500
   123 H151     -24.1463    11.3953     2.8021 hc   1 LNK 0.105500
   124 H152     -22.5201     9.5664     2.3522 hc   1 LNK 0.105500
   125 H153     -22.7169     9.8220     0.6016 hc   1 LNK 0.105500
   126 H154     -25.1375     9.2783     0.7943 hc   1 LNK 0.105500
   127 H155     -24.9407     9.0227     2.5450 hc   1 LNK 0.105500
   128 H156     -23.3145     7.1938     2.0951 hc   1 LNK 0.105500
   129 H157     -23.5113     7.4494     0.3444 hc   1 LNK 0.105500
@<TRIPOS>BOND
     1      1      2 2
     2      1      3 1
     3      3      4 1
     4      4      5 1
     5      5      6 1
     6      5      7 1
     7      7      8 2
     8      7      9 1
     9      9     10 1
    10     10     11 1
    11     11     12 1
    12     12     13 1
    13     13     14 1
    14     14     15 1
    15     15     16 1
    16     16     17 1
    17     17     18 2
    18     17     19 1
    19     19     20 1
    20     20     21 1
    21     21     22 1
    22     22     23 1
    23     23     24 1
    24     24     25 1
    25     25     26 1
    26     26     27 1
    27     27     28 2
    28     27     29 1
    29     29     30 1
    30     30     31 1
    31     31     32 1
    32     32     33 1
    33     33     34 1
    34     34     35 1
    35     35     36 1
    36     36     37 1
    37     37     38 2
    38     37     39 1
    39     39     40 1
    40     40     41 1
    41     41     42 1
    42     42     43 1
    43     43     44 1
    44     44     45 1
    45     45     46 1
    46     46     47 1
    47     47     48 1
    48     48     49 1
    49     49     50 1
    50     50     51 1
    51     51     52 1
    52     52     53 1
    53     53     54 1
    54     54     55 1
    55     55     56 2
    56     55     57 1
    57      3     58 1
    58      3     59 1
    59      4     60 1
    60      4     61 1
    61      5     62 1
    62      6     63 1
    63      6     64 1
    64      9     65 1
    65     10     66 1
    66     10     67 1
    67     11     68 1
    68     11     69 1
    69     13     70 1
    70     13     71 1
    71     14     72 1
    72     14     73 1
    73     16     74 1
    74     16     75 1
    75     19     76 1
    76     20     77 1
    77     20     78 1
    78     21     79 1
    79     21     80 1
    80     23     81 1
    81     23     82 1
    82     24     83 1
    83     24     84 1
    84     26     85 1
    85     26     86 1
    86     29     87 1
    87     30     88 1
    88     30     89 1
    89     31     90 1
    90     31     91 1
    91     33     92 1
    92     33     93 1
    93     34     94 1
    94     34     95 1
    95     36     96 1
    96     36     97 1
    97     39     98 1
    98     39     99 1
    99     40    100 1
   100     40    101 1
   101     41    102 1
   102     41    103 1
   103     42    104 1
   104     42    105 1
   105     43    106 1
   106     43    107 1
   107     44    108 1
   108     44    109 1
   109     45    110 1
   110     45    111 1
   111     46    112 1
   112     46    113 1
   113     47    114 1
   114     47    115 1
   115     48    116 1
   116     48    117 1
   117     49    118 1
   118     49    119 1
   119     50    120 1
   120     50    121 1
   121     51    122 1
   122     51    123 1
   123     52    124 1
   124     52    125 1
   125     53    126 1
   126     53    127 1
   127     54    128 1
   128     54    129 1
@<TRIPOS>SUBSTRUCTURE
1 LNK 1 TEMP 0 **** **** 0 ROOT
