@<TRIPOS>MOLECULE
LNK
   108   107     0     0     0
SMALL
GAFF2
gGlu-2xOEG-C18 pre-anchored at HSA FA3 (exp-G)

@<TRIPOS>ATOM
     1 C11       -8.8524     4.0878    12.3368 c    1 LNK -0.033535
     2 O12       -8.4748     3.2005    11.5571 o    1 LNK -0.079333
     3 C13       -8.0275     4.4222    13.5565 c3   1 LNK -0.033535
     4 C14       -6.5609     4.6413    13.1410 c3   1 LNK -0.033535
     5 C15       -5.7196     4.9824    14.3849 c3   1 LNK -0.033535
     6 N16       -6.2414     6.2074    15.0077 n3   1 LNK -0.105167
     7 C17       -4.2815     5.1973    13.9775 c    1 LNK -0.033535
     8 O18       -4.0159     5.6360    12.8485 o    1 LNK -0.079333
     9 N19       -3.2998     4.9159    14.8295 n    1 LNK -0.105167
    10 C20       -1.9094     5.1237    14.4355 c3   1 LNK -0.033535
    11 C21       -1.2497     6.1347    15.3917 c3   1 LNK -0.033535
    12 O22        0.1121     6.3382    15.0059 os   1 LNK -0.079333
    13 C23        0.9236     6.6575    16.1392 c3   1 LNK -0.033535
    14 C24        2.3799     6.8691    15.6854 c3   1 LNK -0.033535
    15 O25        3.0183     7.8099    16.5528 os   1 LNK -0.079333
    16 C26        4.4205     7.5469    16.6509 c3   1 LNK -0.033535
    17 C27        4.6353     6.1576    17.2020 c    1 LNK -0.033535
    18 O28        3.6606     5.4467    17.4889 o    1 LNK -0.079333
    19 N29        5.8701     5.6963    17.3798 n    1 LNK -0.105167
    20 C30        6.0778     4.3529    17.9126 c3   1 LNK -0.033535
    21 C31        7.5878     4.0697    18.0183 c3   1 LNK -0.033535
    22 O32        8.3205     5.2098    17.5620 os   1 LNK -0.079333
    23 C33        9.7295     4.9810    17.6465 c3   1 LNK -0.033535
    24 C34       10.4836     6.2277    17.1478 c3   1 LNK -0.033535
    25 O35       10.1248     6.4906    15.7887 os   1 LNK -0.079333
    26 C36        9.5317     7.7851    15.6565 c3   1 LNK -0.033535
    27 C37        8.8148     8.1441    16.9361 c    1 LNK -0.033535
    28 O38        7.6215     7.8411    17.0842 o    1 LNK -0.079333
    29 C39        9.5656     8.8865    18.0571 c3   1 LNK -0.033535
    30 C40        8.6092     9.6884    18.9592 c3   1 LNK -0.033535
    31 C41        9.1370     9.8035    20.4013 c3   1 LNK -0.033535
    32 C42        8.3968    10.8914    21.2015 c3   1 LNK -0.033535
    33 C43        9.3716    11.8521    21.9075 c3   1 LNK -0.033535
    34 C44        9.6401    13.1180    21.0727 c3   1 LNK -0.033535
    35 C45       10.5780    12.8370    19.8840 c3   1 LNK -0.033535
    36 C46       10.1460    13.5780    18.6310 c3   1 LNK -0.033535
    37 C47        9.6020    12.6120    17.5740 c3   1 LNK -0.033535
    38 C48       10.4130    12.6530    16.2680 c3   1 LNK -0.033535
    39 C49        9.6760    11.9570    15.1230 c3   1 LNK -0.033535
    40 C50       10.4880    10.8000    14.5530 c3   1 LNK -0.033535
    41 C51       10.9280    11.0770    13.1260 c3   1 LNK -0.033535
    42 C52       12.4260    10.9040    12.9800 c3   1 LNK -0.033535
    43 C53       12.9080    11.2570    11.5800 c3   1 LNK -0.033535
    44 C54       14.1160    10.3410    11.3390 c3   1 LNK -0.033535
    45 C55       13.8850     9.4810    10.0940 c    1 LNK -0.033535
    46 O56       13.4207     8.3207    10.2544 o    1 LNK -0.079333
    47 O57       14.1708     9.9766     8.9714 o    1 LNK -0.079333
    48 H76       -8.4137     5.3309    14.0181 hc   1 LNK 0.071633
    49 H77       -8.0838     3.5998    14.2696 hc   1 LNK 0.071633
    50 H78       -6.5045     5.4638    12.4278 hc   1 LNK 0.071633
    51 H79       -6.1746     3.7326    12.6793 hc   1 LNK 0.071633
    52 H80       -5.7752     4.1599    15.0981 hc   1 LNK 0.071633
    53 H81       -5.4710     6.7897    15.3037 hn   1 LNK 0.071633
    54 H82       -7.2511     6.1871    14.9974 hn   1 LNK 0.071633
    55 H83       -3.5161     4.5586    15.7491 hn   1 LNK 0.071633
    56 H84       -1.3731     4.1759    14.4828 hc   1 LNK 0.071633
    57 H85       -1.8745     5.5109    13.4172 hc   1 LNK 0.071633
    58 H86       -1.7860     7.0825    15.3444 hc   1 LNK 0.071633
    59 H87       -1.2846     5.7475    16.4100 hc   1 LNK 0.071633
    60 H88        0.8825     5.8387    16.8575 hc   1 LNK 0.071633
    61 H89        0.5525     7.5699    16.6060 hc   1 LNK 0.071633
    62 H90        2.9138     5.9196    15.7236 hc   1 LNK 0.071633
    63 H91        2.3903     7.2513    14.6646 hc   1 LNK 0.071633
    64 H92        4.8811     8.2768    17.3166 hc   1 LNK 0.071633
    65 H93        4.8736     7.6195    15.6623 hc   1 LNK 0.071633
    66 H94        6.6640     6.2752    17.1461 hn   1 LNK 0.071633
    67 H95        5.6246     4.2804    18.9013 hc   1 LNK 0.071633
    68 H96        5.6172     3.6230    17.2470 hc   1 LNK 0.071633
    69 H97        7.8468     3.8636    19.0569 hc   1 LNK 0.071633
    70 H98        7.8393     3.2062    17.4025 hc   1 LNK 0.071633
    71 H99       10.0034     4.7812    18.6825 hc   1 LNK 0.071633
    72 H100       9.9959     4.1239    17.0282 hc   1 LNK 0.071633
    73 H101      11.5575     6.0525    17.2124 hc   1 LNK 0.071633
    74 H102      10.2170     7.0848    17.7661 hc   1 LNK 0.071633
    75 H103      10.3095     8.5222    15.4570 hc   1 LNK 0.071633
    76 H104       8.8193     7.7756    14.8316 hc   1 LNK 0.071633
    77 H105      10.0824     8.1497    18.6720 hc   1 LNK 0.071633
    78 H106      10.2699     9.5808    17.5987 hc   1 LNK 0.071633
    79 H107       7.6479     9.1752    18.9842 hc   1 LNK 0.071633
    80 H108       8.5089    10.6929    18.5480 hc   1 LNK 0.071633
    81 H109      10.1944    10.0649    20.3612 hc   1 LNK 0.071633
    82 H110       8.9865     8.8463    20.9006 hc   1 LNK 0.071633
    83 H111       7.7832    11.4696    20.5106 hc   1 LNK 0.071633
    84 H112       7.7838    10.4041    21.9597 hc   1 LNK 0.071633
    85 H113       8.9306    12.1533    22.8577 hc   1 LNK 0.071633
    86 H114      10.3177    11.3326    22.0593 hc   1 LNK 0.071633
    87 H115      10.1121    13.8609    21.7157 hc   1 LNK 0.071633
    88 H116       8.6893    13.4815    20.6828 hc   1 LNK 0.071633
    89 H117      10.5587    11.7673    19.6754 hc   1 LNK 0.071633
    90 H118      11.5815    13.1682    20.1513 hc   1 LNK 0.071633
    91 H119       9.3601    14.2853    18.8962 hc   1 LNK 0.071633
    92 H120      11.0094    14.0991    18.2174 hc   1 LNK 0.071633
    93 H121       9.6551    11.6006    17.9768 hc   1 LNK 0.071633
    94 H122       8.5750    12.8981    17.3468 hc   1 LNK 0.071633
    95 H123      11.3610    12.1407    16.4323 hc   1 LNK 0.071633
    96 H124      10.5752    13.6952    15.9932 hc   1 LNK 0.071633
    97 H125       9.5027    12.6837    14.3293 hc   1 LNK 0.071633
    98 H126       8.7334    11.5647    15.5046 hc   1 LNK 0.071633
    99 H127      11.3758    10.6610    15.1699 hc   1 LNK 0.071633
   100 H128       9.8674     9.9039    14.5579 hc   1 LNK 0.071633
   101 H129      10.4252    10.3764    12.4594 hc   1 LNK 0.071633
   102 H130      10.6644    12.1028    12.8682 hc   1 LNK 0.071633
   103 H131      12.6726     9.8605    13.1759 hc   1 LNK 0.071633
   104 H132      12.9198    11.5662    13.6911 hc   1 LNK 0.071633
   105 H133      13.1850    12.3087    11.5076 hc   1 LNK 0.071633
   106 H134      12.1281    11.0913    10.8368 hc   1 LNK 0.071633
   107 H135      15.0060    10.9528    11.1919 hc   1 LNK 0.071633
   108 H136      14.2510     9.6910    12.2035 hc   1 LNK 0.071633
@<TRIPOS>BOND
     1      1      2 2
     2      1      3 1
     3      3      4 1
     4      4      5 1
     5      5      6 1
     6      5      7 1
     7      7      8 2
     8      7      9 1
     9      9     10 1
    10     10     11 1
    11     11     12 1
    12     12     13 1
    13     13     14 1
    14     14     15 1
    15     15     16 1
    16     16     17 1
    17     17     18 2
    18     17     19 1
    19     19     20 1
    20     20     21 1
    21     21     22 1
    22     22     23 1
    23     23     24 1
    24     24     25 1
    25     25     26 1
    26     26     27 1
    27     27     28 2
    28     27     29 1
    29     29     30 1
    30     30     31 1
    31     31     32 1
    32     32     33 1
    33     33     34 1
    34     34     35 1
    35     35     36 1
    36     36     37 1
    37     37     38 1
    38     38     39 1
    39     39     40 1
    40     40     41 1
    41     41     42 1
    42     42     43 1
    43     43     44 1
    44     44     45 1
    45     45     46 2
    46     45     47 1
    47      3     48 1
    48      3     49 1
    49      4     50 1
    50      4     51 1
    51      5     52 1
    52      6     53 1
    53      6     54 1
    54      9     55 1
    55     10     56 1
    56     10     57 1
    57     11     58 1
    58     11     59 1
    59     13     60 1
    60     13     61 1
    61     14     62 1
    62     14     63 1
    63     16     64 1
    64     16     65 1
    65     19     66 1
    66     20     67 1
    67     20     68 1
    68     21     69 1
    69     21     70 1
    70     23     71 1
    71     23     72 1
    72     24     73 1
    73     24     74 1
    74     26     75 1
    75     26     76 1
    76     29     77 1
    77     29     78 1
    78     30     79 1
    79     30     80 1
    80     31     81 1
    81     31     82 1
    82     32     83 1
    83     32     84 1
    84     33     85 1
    85     33     86 1
    86     34     87 1
    87     34     88 1
    88     35     89 1
    89     35     90 1
    90     36     91 1
    91     36     92 1
    92     37     93 1
    93     37     94 1
    94     38     95 1
    95     38     96 1
    96     39     97 1
    97     39     98 1
    98     40     99 1
    99     40    100 1
   100     41    101 1
   101     41    102 1
   102     42    103 1
   103     42    104 1
   104     43    105 1
   105     43    106 1
   106     44    107 1
   107     44    108 1
@<TRIPOS>SUBSTRUCTURE
1 LNK 1 TEMP 0 **** **** 0 ROOT
